/*---------------------------------------------------------------------------*\
  =========                 |
  \\      /  F ield         | OpenFOAM: The Open Source CFD Toolbox
   \\    /   O peration     | Website:  https://openfoam.org
    \\  /    A nd           | Version:  7
     \\/     M anipulation  |
\*---------------------------------------------------------------------------*/
Build  : 7-1ff648926f77
Exec   : interFoam
Date   : Feb 26 2020
Time   : 19:08:18
Host   : "DESKTOP-KF81SG4"
PID    : 31222
I/O    : uncollated
Case   : /home/anthonygay1812/OpenFOAM/tutorials/tutorials/multiphase/interFoam/laminar/damBreak/damBreak
nProcs : 1
sigFpe : Enabling floating point exception trapping (FOAM_SIGFPE).
fileModificationChecking : Monitoring run-time modified files using timeStampMaster (fileModificationSkew 10)
allowSystemOperations : Allowing user-supplied system call operations

// * * * * * * * * * * * * * * * * * * * * * * * * * * * * * * * * * * * * * //
Create time

Create mesh for time = 0


PIMPLE: No convergence criteria found


PIMPLE: Operating solver in transient mode with 1 outer corrector
PIMPLE: Operating solver in PISO mode


Reading field p_rgh

Reading field U

Reading/calculating face flux field phi

Reading transportProperties

Selecting incompressible transport model Newtonian
Selecting incompressible transport model Newtonian
Selecting turbulence model type laminar
Selecting laminar stress model Stokes

Reading g

Reading hRef
Calculating field g.h

No MRF models present

No finite volume options present
DICPCG:  Solving for pcorr, Initial residual = 0, Final residual = 0, No Iterations 0
time step continuity errors : sum local = 0, global = 0, cumulative = 0
Courant Number mean: 0 max: 0

Starting time loop

Courant Number mean: 0 max: 0
Interface Courant Number mean: 0 max: 0
deltaT = 0.00119048
Time = 0.00119048

smoothSolver:  Solving for alpha.water, Initial residual = 0, Final residual = 0, No Iterations 0
Phase-1 volume fraction = 0.130194  Min(alpha.water) = 0  Max(alpha.water) = 1
MULES: Correcting alpha.water
MULES: Correcting alpha.water
Phase-1 volume fraction = 0.130194  Min(alpha.water) = 0  Max(alpha.water) = 1
DICPCG:  Solving for p_rgh, Initial residual = 1, Final residual = 0.00312169, No Iterations 1
time step continuity errors : sum local = 0.000863663, global = -1.26728e-12, cumulative = -1.26728e-12
DICPCG:  Solving for p_rgh, Initial residual = 0.00146342, Final residual = 6.18289e-05, No Iterations 13
time step continuity errors : sum local = 3.6494e-05, global = -1.00159e-05, cumulative = -1.00159e-05
DICPCG:  Solving for p_rgh, Initial residual = 5.08541e-05, Final residual = 8.19126e-08, No Iterations 48
time step continuity errors : sum local = 5.88485e-08, global = 1.01685e-08, cumulative = -1.00057e-05
ExecutionTime = 0.03 s  ClockTime = 1 s

Courant Number mean: 0.00124881 max: 0.107249
Interface Courant Number mean: 0 max: 0
deltaT = 0.00139456
Time = 0.00258503

smoothSolver:  Solving for alpha.water, Initial residual = 0.000282089, Final residual = 1.76373e-12, No Iterations 2
Phase-1 volume fraction = 0.130194  Min(alpha.water) = 0  Max(alpha.water) = 1
MULES: Correcting alpha.water
MULES: Correcting alpha.water
Phase-1 volume fraction = 0.130194  Min(alpha.water) = -3.70544e-13  Max(alpha.water) = 1
DICPCG:  Solving for p_rgh, Initial residual = 0.00309606, Final residual = 0.00010218, No Iterations 2
time step continuity errors : sum local = 8.64267e-05, global = 2.84025e-08, cumulative = -9.97728e-06
DICPCG:  Solving for p_rgh, Initial residual = 0.000211925, Final residual = 9.22202e-06, No Iterations 35
time step continuity errors : sum local = 7.80404e-06, global = -8.60921e-08, cumulative = -1.00634e-05
DICPCG:  Solving for p_rgh, Initial residual = 2.94093e-05, Final residual = 9.59862e-08, No Iterations 43
time step continuity errors : sum local = 8.11989e-08, global = 5.63664e-09, cumulative = -1.00577e-05
ExecutionTime = 0.05 s  ClockTime = 1 s

Courant Number mean: 0.00181513 max: 0.0549796
Interface Courant Number mean: 4.99693e-05 max: 0.0549796
deltaT = 0.001635
Time = 0.00422003

smoothSolver:  Solving for alpha.water, Initial residual = 0.000190546, Final residual = 8.83224e-09, No Iterations 1
Phase-1 volume fraction = 0.130194  Min(alpha.water) = 0  Max(alpha.water) = 1
MULES: Correcting alpha.water
MULES: Correcting alpha.water
Phase-1 volume fraction = 0.130194  Min(alpha.water) = -6.87844e-19  Max(alpha.water) = 1
DICPCG:  Solving for p_rgh, Initial residual = 0.00263542, Final residual = 6.09915e-05, No Iterations 2
time step continuity errors : sum local = 6.43292e-05, global = 9.4966e-11, cumulative = -1.00576e-05
DICPCG:  Solving for p_rgh, Initial residual = 6.18515e-05, Final residual = 2.43681e-06, No Iterations 36
time step continuity errors : sum local = 2.5685e-06, global = 3.17558e-09, cumulative = -1.00545e-05
DICPCG:  Solving for p_rgh, Initial residual = 2.89198e-06, Final residual = 7.05893e-08, No Iterations 19
time step continuity errors : sum local = 7.44518e-08, global = -5.49027e-09, cumulative = -1.006e-05
ExecutionTime = 0.06 s  ClockTime = 1 s

Courant Number mean: 0.00313725 max: 0.051469
Interface Courant Number mean: 4.24561e-05 max: 0.0434254
deltaT = 0.0019075
Time = 0.00612753

smoothSolver:  Solving for alpha.water, Initial residual = 0.000225843, Final residual = 6.93856e-14, No Iterations 2
Phase-1 volume fraction = 0.130194  Min(alpha.water) = 0  Max(alpha.water) = 1
MULES: Correcting alpha.water
MULES: Correcting alpha.water
Phase-1 volume fraction = 0.130194  Min(alpha.water) = -3.67402e-18  Max(alpha.water) = 1
DICPCG:  Solving for p_rgh, Initial residual = 0.00332346, Final residual = 0.000146651, No Iterations 1
time step continuity errors : sum local = 0.000193491, global = -1.65692e-08, cumulative = -1.00765e-05
DICPCG:  Solving for p_rgh, Initial residual = 0.000149529, Final residual = 6.72852e-06, No Iterations 10
time step continuity errors : sum local = 8.86256e-06, global = -3.68771e-07, cumulative = -1.04453e-05
DICPCG:  Solving for p_rgh, Initial residual = 7.14233e-06, Final residual = 8.86312e-08, No Iterations 37
time step continuity errors : sum local = 1.16774e-07, global = -1.05796e-08, cumulative = -1.04559e-05
ExecutionTime = 0.08 s  ClockTime = 1 s

Courant Number mean: 0.00514116 max: 0.0598759
Interface Courant Number mean: 0.000132037 max: 0.0475116
deltaT = 0.00219362
Time = 0.00832115

smoothSolver:  Solving for alpha.water, Initial residual = 0.000321729, Final residual = 4.25076e-13, No Iterations 2
Phase-1 volume fraction = 0.130194  Min(alpha.water) = 0  Max(alpha.water) = 1
MULES: Correcting alpha.water
MULES: Correcting alpha.water
Phase-1 volume fraction = 0.130194  Min(alpha.water) = -1.49777e-17  Max(alpha.water) = 1
DICPCG:  Solving for p_rgh, Initial residual = 0.00488481, Final residual = 0.000156244, No Iterations 1
time step continuity errors : sum local = 0.00025615, global = -7.43219e-09, cumulative = -1.04633e-05
DICPCG:  Solving for p_rgh, Initial residual = 0.00015888, Final residual = 7.44605e-06, No Iterations 9
time step continuity errors : sum local = 1.217e-05, global = -5.73877e-08, cumulative = -1.05207e-05
DICPCG:  Solving for p_rgh, Initial residual = 8.0953e-06, Final residual = 9.05493e-08, No Iterations 37
time step continuity errors : sum local = 1.48045e-07, global = 1.66968e-09, cumulative = -1.0519e-05
ExecutionTime = 0.1 s  ClockTime = 1 s

Courant Number mean: 0.00792289 max: 0.0732043
Interface Courant Number mean: 0.000283174 max: 0.0656744
deltaT = 0.00260493
Time = 0.0109261

smoothSolver:  Solving for alpha.water, Initial residual = 0.000479657, Final residual = 2.41186e-12, No Iterations 2
Phase-1 volume fraction = 0.130194  Min(alpha.water) = 0  Max(alpha.water) = 1
MULES: Correcting alpha.water
MULES: Correcting alpha.water
Phase-1 volume fraction = 0.130194  Min(alpha.water) = -1.81482e-11  Max(alpha.water) = 1
DICPCG:  Solving for p_rgh, Initial residual = 0.00740493, Final residual = 0.00017816, No Iterations 1
time step continuity errors : sum local = 0.000392275, global = 3.94723e-08, cumulative = -1.04796e-05
DICPCG:  Solving for p_rgh, Initial residual = 0.000180534, Final residual = 8.48552e-06, No Iterations 9
time step continuity errors : sum local = 1.85897e-05, global = 9.6788e-08, cumulative = -1.03828e-05
DICPCG:  Solving for p_rgh, Initial residual = 1.01062e-05, Final residual = 9.33423e-08, No Iterations 37
time step continuity errors : sum local = 2.04584e-07, global = 5.01709e-09, cumulative = -1.03778e-05
ExecutionTime = 0.1 s  ClockTime = 1 s

Courant Number mean: 0.012248 max: 0.101665
Interface Courant Number mean: 0.000490898 max: 0.0991102
deltaT = 0.00300569
Time = 0.0139318

smoothSolver:  Solving for alpha.water, Initial residual = 0.000691589, Final residual = 1.10398e-11, No Iterations 2
Phase-1 volume fraction = 0.130194  Min(alpha.water) = 0  Max(alpha.water) = 1
MULES: Correcting alpha.water
MULES: Correcting alpha.water
Phase-1 volume fraction = 0.130194  Min(alpha.water) = -8.20817e-11  Max(alpha.water) = 1
DICPCG:  Solving for p_rgh, Initial residual = 0.0108241, Final residual = 0.000200507, No Iterations 1
time step continuity errors : sum local = 0.00056417, global = 4.52706e-08, cumulative = -1.03325e-05
DICPCG:  Solving for p_rgh, Initial residual = 0.000203262, Final residual = 9.63677e-06, No Iterations 10
time step continuity errors : sum local = 2.6923e-05, global = 2.82013e-07, cumulative = -1.00505e-05
DICPCG:  Solving for p_rgh, Initial residual = 1.28372e-05, Final residual = 9.27405e-08, No Iterations 36
time step continuity errors : sum local = 2.59316e-07, global = -1.13664e-09, cumulative = -1.00516e-05
ExecutionTime = 0.11 s  ClockTime = 1 s

Courant Number mean: 0.0179215 max: 0.146385
Interface Courant Number mean: 0.000788393 max: 0.143383
deltaT = 0.00360682
Time = 0.0175386

smoothSolver:  Solving for alpha.water, Initial residual = 0.00102033, Final residual = 5.43966e-11, No Iterations 2
Phase-1 volume fraction = 0.130194  Min(alpha.water) = 0  Max(alpha.water) = 1
MULES: Correcting alpha.water
MULES: Correcting alpha.water
Phase-1 volume fraction = 0.130194  Min(alpha.water) = -3.47172e-11  Max(alpha.water) = 1
DICPCG:  Solving for p_rgh, Initial residual = 0.0161333, Final residual = 0.000238949, No Iterations 1
time step continuity errors : sum local = 0.000927425, global = 6.47739e-08, cumulative = -9.98683e-06
DICPCG:  Solving for p_rgh, Initial residual = 0.000243853, Final residual = 1.14864e-05, No Iterations 10
time step continuity errors : sum local = 4.41126e-05, global = 1.11912e-06, cumulative = -8.86771e-06
DICPCG:  Solving for p_rgh, Initial residual = 1.78318e-05, Final residual = 9.92726e-08, No Iterations 38
time step continuity errors : sum local = 3.81701e-07, global = -6.86446e-08, cumulative = -8.93635e-06
ExecutionTime = 0.11 s  ClockTime = 1 s

Courant Number mean: 0.027009 max: 0.208879
Interface Courant Number mean: 0.00132797 max: 0.208879
deltaT = 0.00405768
Time = 0.0215963

smoothSolver:  Solving for alpha.water, Initial residual = 0.00140091, Final residual = 1.80116e-10, No Iterations 2
Phase-1 volume fraction = 0.130194  Min(alpha.water) = 0  Max(alpha.water) = 1
MULES: Correcting alpha.water
MULES: Correcting alpha.water
Phase-1 volume fraction = 0.130194  Min(alpha.water) = -5.58263e-10  Max(alpha.water) = 1
DICPCG:  Solving for p_rgh, Initial residual = 0.0223725, Final residual = 0.000265374, No Iterations 1
time step continuity errors : sum local = 0.00124542, global = -1.82681e-08, cumulative = -8.95462e-06
DICPCG:  Solving for p_rgh, Initial residual = 0.000273135, Final residual = 1.31818e-05, No Iterations 10
time step continuity errors : sum local = 6.09489e-05, global = 2.38496e-06, cumulative = -6.56966e-06
DICPCG:  Solving for p_rgh, Initial residual = 2.30542e-05, Final residual = 9.79804e-08, No Iterations 40
time step continuity errors : sum local = 4.5388e-07, global = -7.35841e-08, cumulative = -6.64324e-06
ExecutionTime = 0.13 s  ClockTime = 1 s

Courant Number mean: 0.0373861 max: 0.275274
Interface Courant Number mean: 0.00182617 max: 0.274075
deltaT = 0.00473396
Time = 0.0263302

smoothSolver:  Solving for alpha.water, Initial residual = 0.00196671, Final residual = 5.87603e-10, No Iterations 2
Phase-1 volume fraction = 0.130194  Min(alpha.water) = 0  Max(alpha.water) = 1
MULES: Correcting alpha.water
MULES: Correcting alpha.water
Phase-1 volume fraction = 0.130194  Min(alpha.water) = -3.72342e-10  Max(alpha.water) = 1
DICPCG:  Solving for p_rgh, Initial residual = 0.0310631, Final residual = 0.000253039, No Iterations 1
time step continuity errors : sum local = 0.00153182, global = 1.80106e-07, cumulative = -6.46314e-06
DICPCG:  Solving for p_rgh, Initial residual = 0.000267202, Final residual = 1.29637e-05, No Iterations 11
time step continuity errors : sum local = 7.6783e-05, global = 1.26336e-06, cumulative = -5.19978e-06
DICPCG:  Solving for p_rgh, Initial residual = 3.01842e-05, Final residual = 9.69481e-08, No Iterations 43
time step continuity errors : sum local = 5.75968e-07, global = -2.94189e-08, cumulative = -5.22919e-06
ExecutionTime = 0.14 s  ClockTime = 1 s

Courant Number mean: 0.053397 max: 0.387382
Interface Courant Number mean: 0.00270623 max: 0.37587
deltaT = 0.00473396
Time = 0.0310642

smoothSolver:  Solving for alpha.water, Initial residual = 0.00237828, Final residual = 1.53823e-13, No Iterations 3
Phase-1 volume fraction = 0.130194  Min(alpha.water) = 0  Max(alpha.water) = 1
MULES: Correcting alpha.water
MULES: Correcting alpha.water
Phase-1 volume fraction = 0.130194  Min(alpha.water) = -5.40862e-10  Max(alpha.water) = 1
DICPCG:  Solving for p_rgh, Initial residual = 0.0380889, Final residual = 0.000262368, No Iterations 1
time step continuity errors : sum local = 0.00149533, global = 3.27524e-07, cumulative = -4.90167e-06
DICPCG:  Solving for p_rgh, Initial residual = 0.000280404, Final residual = 1.36733e-05, No Iterations 11
time step continuity errors : sum local = 7.58584e-05, global = 5.53631e-06, cumulative = 6.34637e-07
DICPCG:  Solving for p_rgh, Initial residual = 3.33138e-05, Final residual = 8.06874e-08, No Iterations 39
time step continuity errors : sum local = 4.49674e-07, global = -3.7659e-08, cumulative = 5.96978e-07
ExecutionTime = 0.16 s  ClockTime = 1 s

Courant Number mean: 0.0628391 max: 0.432669
Interface Courant Number mean: 0.00328118 max: 0.423026
deltaT = 0.00473396
Time = 0.0357981

smoothSolver:  Solving for alpha.water, Initial residual = 0.00275577, Final residual = 3.31024e-13, No Iterations 3
Phase-1 volume fraction = 0.130194  Min(alpha.water) = 0  Max(alpha.water) = 1
MULES: Correcting alpha.water
MULES: Correcting alpha.water
Phase-1 volume fraction = 0.130194  Min(alpha.water) = -2.70267e-10  Max(alpha.water) = 1
DICPCG:  Solving for p_rgh, Initial residual = 0.0453665, Final residual = 0.000309064, No Iterations 1
time step continuity errors : sum local = 0.00164404, global = 2.14265e-07, cumulative = 8.11243e-07
DICPCG:  Solving for p_rgh, Initial residual = 0.000337577, Final residual = 1.65063e-05, No Iterations 10
time step continuity errors : sum local = 8.48986e-05, global = 6.51224e-06, cumulative = 7.32348e-06
DICPCG:  Solving for p_rgh, Initial residual = 4.12625e-05, Final residual = 7.24495e-08, No Iterations 40
time step continuity errors : sum local = 3.74652e-07, global = -4.06103e-08, cumulative = 7.28287e-06
ExecutionTime = 0.16 s  ClockTime = 1 s

Courant Number mean: 0.0719281 max: 0.509096
Interface Courant Number mean: 0.00407358 max: 0.499214
deltaT = 0.00473396
Time = 0.0405321

smoothSolver:  Solving for alpha.water, Initial residual = 0.00311035, Final residual = 5.37159e-10, No Iterations 3
Phase-1 volume fraction = 0.130194  Min(alpha.water) = 0  Max(alpha.water) = 1
MULES: Correcting alpha.water
MULES: Correcting alpha.water
Phase-1 volume fraction = 0.130194  Min(alpha.water) = -2.42704e-11  Max(alpha.water) = 1
DICPCG:  Solving for p_rgh, Initial residual = 0.0515807, Final residual = 0.000363404, No Iterations 1
time step continuity errors : sum local = 0.00178272, global = 1.71903e-07, cumulative = 7.45478e-06
DICPCG:  Solving for p_rgh, Initial residual = 0.000404821, Final residual = 1.87908e-05, No Iterations 10
time step continuity errors : sum local = 8.86073e-05, global = 8.20228e-06, cumulative = 1.56571e-05
DICPCG:  Solving for p_rgh, Initial residual = 5.1488e-05, Final residual = 8.63539e-08, No Iterations 30
time step continuity errors : sum local = 4.10156e-07, global = -1.42578e-07, cumulative = 1.55145e-05
ExecutionTime = 0.17 s  ClockTime = 1 s

Courant Number mean: 0.0808729 max: 0.546069
Interface Courant Number mean: 0.00496356 max: 0.536969
deltaT = 0.00473396
Time = 0.045266

smoothSolver:  Solving for alpha.water, Initial residual = 0.00345543, Final residual = 2.91381e-09, No Iterations 3
Phase-1 volume fraction = 0.130194  Min(alpha.water) = 0  Max(alpha.water) = 1
MULES: Correcting alpha.water
MULES: Correcting alpha.water
Phase-1 volume fraction = 0.130194  Min(alpha.water) = -3.3008e-11  Max(alpha.water) = 1
DICPCG:  Solving for p_rgh, Initial residual = 0.0556382, Final residual = 0.000450943, No Iterations 1
time step continuity errors : sum local = 0.00202253, global = -6.05984e-08, cumulative = 1.54539e-05
DICPCG:  Solving for p_rgh, Initial residual = 0.000503688, Final residual = 2.22154e-05, No Iterations 10
time step continuity errors : sum local = 9.54778e-05, global = 1.12267e-05, cumulative = 2.66806e-05
DICPCG:  Solving for p_rgh, Initial residual = 6.58525e-05, Final residual = 9.12846e-08, No Iterations 30
time step continuity errors : sum local = 3.96164e-07, global = -3.73502e-08, cumulative = 2.66432e-05
ExecutionTime = 0.19 s  ClockTime = 1 s

Courant Number mean: 0.0896828 max: 0.601921
Interface Courant Number mean: 0.00654792 max: 0.575005
deltaT = 0.00473396
Time = 0.05

smoothSolver:  Solving for alpha.water, Initial residual = 0.00378549, Final residual = 5.66727e-09, No Iterations 3
Phase-1 volume fraction = 0.130194  Min(alpha.water) = 0  Max(alpha.water) = 1
MULES: Correcting alpha.water
MULES: Correcting alpha.water
Phase-1 volume fraction = 0.130194  Min(alpha.water) = -4.50805e-11  Max(alpha.water) = 1
DICPCG:  Solving for p_rgh, Initial residual = 0.0566583, Final residual = 0.000551251, No Iterations 1
time step continuity errors : sum local = 0.00225436, global = 1.93629e-07, cumulative = 2.68368e-05
DICPCG:  Solving for p_rgh, Initial residual = 0.000612877, Final residual = 2.68544e-05, No Iterations 10
time step continuity errors : sum local = 0.000105127, global = 1.61223e-05, cumulative = 4.29591e-05
DICPCG:  Solving for p_rgh, Initial residual = 8.21939e-05, Final residual = 9.89572e-08, No Iterations 31
time step continuity errors : sum local = 3.92055e-07, global = -8.3796e-08, cumulative = 4.28753e-05
ExecutionTime = 0.19 s  ClockTime = 1 s

Courant Number mean: 0.0984235 max: 0.654519
Interface Courant Number mean: 0.00739625 max: 0.618471
deltaT = 0.005
Time = 0.055

smoothSolver:  Solving for alpha.water, Initial residual = 0.00435523, Final residual = 9.93169e-11, No Iterations 4
Phase-1 volume fraction = 0.130194  Min(alpha.water) = 0  Max(alpha.water) = 1
MULES: Correcting alpha.water
MULES: Correcting alpha.water
Phase-1 volume fraction = 0.130194  Min(alpha.water) = -1.25079e-10  Max(alpha.water) = 1
DICPCG:  Solving for p_rgh, Initial residual = 0.0560566, Final residual = 0.000758627, No Iterations 1
time step continuity errors : sum local = 0.00313029, global = -3.8651e-08, cumulative = 4.28367e-05
DICPCG:  Solving for p_rgh, Initial residual = 0.000850381, Final residual = 3.92883e-05, No Iterations 10
time step continuity errors : sum local = 0.000155252, global = 2.50147e-05, cumulative = 6.78513e-05
DICPCG:  Solving for p_rgh, Initial residual = 0.000121587, Final residual = 7.0358e-08, No Iterations 50
time step continuity errors : sum local = 2.82351e-07, global = -3.80263e-09, cumulative = 6.78475e-05
ExecutionTime = 0.21 s  ClockTime = 1 s

Courant Number mean: 0.113866 max: 0.728419
Interface Courant Number mean: 0.00858841 max: 0.700585
deltaT = 0.005625
Time = 0.060625

smoothSolver:  Solving for alpha.water, Initial residual = 0.00536721, Final residual = 3.86486e-10, No Iterations 4
Phase-1 volume fraction = 0.130194  Min(alpha.water) = 0  Max(alpha.water) = 1
MULES: Correcting alpha.water
MULES: Correcting alpha.water
Phase-1 volume fraction = 0.130194  Min(alpha.water) = -4.99953e-09  Max(alpha.water) = 1
DICPCG:  Solving for p_rgh, Initial residual = 0.0544239, Final residual = 0.00118808, No Iterations 1
time step continuity errors : sum local = 0.00560486, global = 2.62964e-07, cumulative = 6.81105e-05
DICPCG:  Solving for p_rgh, Initial residual = 0.00134273, Final residual = 6.71206e-05, No Iterations 10
time step continuity errors : sum local = 0.000303433, global = 5.39183e-05, cumulative = 0.000122029
DICPCG:  Solving for p_rgh, Initial residual = 0.000200159, Final residual = 9.33123e-08, No Iterations 46
time step continuity errors : sum local = 4.30368e-07, global = 1.5768e-08, cumulative = 0.000122045
ExecutionTime = 0.22 s  ClockTime = 1 s

Courant Number mean: 0.14069 max: 0.884189
Interface Courant Number mean: 0.0116076 max: 0.840006
deltaT = 0.005625
Time = 0.06625

smoothSolver:  Solving for alpha.water, Initial residual = 0.00584173, Final residual = 2.00447e-09, No Iterations 4
Phase-1 volume fraction = 0.130194  Min(alpha.water) = 0  Max(alpha.water) = 1
MULES: Correcting alpha.water
MULES: Correcting alpha.water
Phase-1 volume fraction = 0.130194  Min(alpha.water) = -1.27378e-08  Max(alpha.water) = 1
DICPCG:  Solving for p_rgh, Initial residual = 0.0435573, Final residual = 0.00143332, No Iterations 1
time step continuity errors : sum local = 0.00638479, global = -4.647e-07, cumulative = 0.00012158
DICPCG:  Solving for p_rgh, Initial residual = 0.00160855, Final residual = 7.31092e-05, No Iterations 10
time step continuity errors : sum local = 0.000316073, global = 6.58539e-05, cumulative = 0.000187434
DICPCG:  Solving for p_rgh, Initial residual = 0.000232813, Final residual = 9.05112e-08, No Iterations 50
time step continuity errors : sum local = 4.00467e-07, global = -3.48818e-08, cumulative = 0.000187399
ExecutionTime = 0.24 s  ClockTime = 1 s

Courant Number mean: 0.152707 max: 0.961928
Interface Courant Number mean: 0.0134019 max: 0.896729
deltaT = 0.005625
Time = 0.071875

smoothSolver:  Solving for alpha.water, Initial residual = 0.00625568, Final residual = 3.80816e-09, No Iterations 4
Phase-1 volume fraction = 0.130194  Min(alpha.water) = 0  Max(alpha.water) = 1
MULES: Correcting alpha.water
MULES: Correcting alpha.water
Phase-1 volume fraction = 0.130194  Min(alpha.water) = -1.87248e-09  Max(alpha.water) = 1
DICPCG:  Solving for p_rgh, Initial residual = 0.0399232, Final residual = 0.00117147, No Iterations 1
time step continuity errors : sum local = 0.00551487, global = -1.01171e-06, cumulative = 0.000186387
DICPCG:  Solving for p_rgh, Initial residual = 0.00134016, Final residual = 5.74183e-05, No Iterations 11
time step continuity errors : sum local = 0.000262952, global = 6.18911e-05, cumulative = 0.000248278
DICPCG:  Solving for p_rgh, Initial residual = 0.000203685, Final residual = 9.22209e-08, No Iterations 50
time step continuity errors : sum local = 4.32407e-07, global = -4.04335e-08, cumulative = 0.000248238
ExecutionTime = 0.24 s  ClockTime = 1 s

Courant Number mean: 0.164314 max: 1.18286
Interface Courant Number mean: 0.014714 max: 0.94674
deltaT = 0.0046875
Time = 0.0765625

smoothSolver:  Solving for alpha.water, Initial residual = 0.00557514, Final residual = 1.91237e-09, No Iterations 4
Phase-1 volume fraction = 0.130194  Min(alpha.water) = -2.73635e-14  Max(alpha.water) = 1
MULES: Correcting alpha.water
MULES: Correcting alpha.water
Phase-1 volume fraction = 0.130194  Min(alpha.water) = -1.19793e-09  Max(alpha.water) = 1
DICPCG:  Solving for p_rgh, Initial residual = 0.0663349, Final residual = 0.000735349, No Iterations 1
time step continuity errors : sum local = 0.00289281, global = -8.02394e-07, cumulative = 0.000247435
DICPCG:  Solving for p_rgh, Initial residual = 0.000853638, Final residual = 3.75634e-05, No Iterations 11
time step continuity errors : sum local = 0.000138802, global = 2.70776e-05, cumulative = 0.000274513
DICPCG:  Solving for p_rgh, Initial residual = 0.000129146, Final residual = 8.6762e-08, No Iterations 49
time step continuity errors : sum local = 3.26948e-07, global = -1.37369e-08, cumulative = 0.000274499
ExecutionTime = 0.25 s  ClockTime = 1 s

Courant Number mean: 0.144637 max: 1.16145
Interface Courant Number mean: 0.0134412 max: 0.829514
deltaT = 0.00390625
Time = 0.0804688

smoothSolver:  Solving for alpha.water, Initial residual = 0.00491962, Final residual = 6.84425e-10, No Iterations 4
Phase-1 volume fraction = 0.130194  Min(alpha.water) = -1.08466e-14  Max(alpha.water) = 1
MULES: Correcting alpha.water
MULES: Correcting alpha.water
Phase-1 volume fraction = 0.130194  Min(alpha.water) = -1.75498e-09  Max(alpha.water) = 1
DICPCG:  Solving for p_rgh, Initial residual = 0.0497112, Final residual = 0.000900268, No Iterations 1
time step continuity errors : sum local = 0.0022689, global = -3.08326e-07, cumulative = 0.000274191
DICPCG:  Solving for p_rgh, Initial residual = 0.00101449, Final residual = 4.21424e-05, No Iterations 11
time step continuity errors : sum local = 0.000101511, global = 2.01348e-05, cumulative = 0.000294326
DICPCG:  Solving for p_rgh, Initial residual = 0.000132534, Final residual = 9.39653e-08, No Iterations 34
time step continuity errors : sum local = 2.3051e-07, global = 4.95426e-08, cumulative = 0.000294375
ExecutionTime = 0.25 s  ClockTime = 1 s

Courant Number mean: 0.125835 max: 1.11383
Interface Courant Number mean: 0.0112519 max: 0.734423
deltaT = 0.00325521
Time = 0.083724

smoothSolver:  Solving for alpha.water, Initial residual = 0.0042954, Final residual = 2.36329e-10, No Iterations 4
Phase-1 volume fraction = 0.130194  Min(alpha.water) = -8.42052e-15  Max(alpha.water) = 1
MULES: Correcting alpha.water
MULES: Correcting alpha.water
Phase-1 volume fraction = 0.130194  Min(alpha.water) = -7.7865e-09  Max(alpha.water) = 1
DICPCG:  Solving for p_rgh, Initial residual = 0.0385203, Final residual = 0.00103007, No Iterations 1
time step continuity errors : sum local = 0.00173346, global = -1.33754e-07, cumulative = 0.000294242
DICPCG:  Solving for p_rgh, Initial residual = 0.00114652, Final residual = 4.63124e-05, No Iterations 11
time step continuity errors : sum local = 7.54617e-05, global = 1.5261e-05, cumulative = 0.000309503
DICPCG:  Solving for p_rgh, Initial residual = 0.00013604, Final residual = 7.88525e-08, No Iterations 49
time step continuity errors : sum local = 1.30554e-07, global = -3.62352e-09, cumulative = 0.000309499
ExecutionTime = 0.27 s  ClockTime = 1 s

Courant Number mean: 0.108666 max: 1.064
Interface Courant Number mean: 0.00965289 max: 0.614703
deltaT = 0.00271267
Time = 0.0864366

smoothSolver:  Solving for alpha.water, Initial residual = 0.00370906, Final residual = 7.36952e-09, No Iterations 3
Phase-1 volume fraction = 0.130194  Min(alpha.water) = -6.78496e-15  Max(alpha.water) = 1
MULES: Correcting alpha.water
MULES: Correcting alpha.water
Phase-1 volume fraction = 0.130194  Min(alpha.water) = -7.99383e-09  Max(alpha.water) = 1
DICPCG:  Solving for p_rgh, Initial residual = 0.0295591, Final residual = 0.000864238, No Iterations 1
time step continuity errors : sum local = 0.00101521, global = -1.72051e-07, cumulative = 0.000309327
DICPCG:  Solving for p_rgh, Initial residual = 0.000954534, Final residual = 3.92831e-05, No Iterations 11
time step continuity errors : sum local = 4.50683e-05, global = 9.81729e-06, cumulative = 0.000319144
DICPCG:  Solving for p_rgh, Initial residual = 0.000102097, Final residual = 8.43777e-08, No Iterations 48
time step continuity errors : sum local = 9.80655e-08, global = -6.04789e-09, cumulative = 0.000319138
ExecutionTime = 0.27 s  ClockTime = 1 s

Courant Number mean: 0.0929966 max: 0.992537
Interface Courant Number mean: 0.00787366 max: 0.512228
deltaT = 0.00271267
Time = 0.0891493

smoothSolver:  Solving for alpha.water, Initial residual = 0.00379261, Final residual = 7.43392e-09, No Iterations 3
Phase-1 volume fraction = 0.130194  Min(alpha.water) = -5.4223e-15  Max(alpha.water) = 1
MULES: Correcting alpha.water
MULES: Correcting alpha.water
Phase-1 volume fraction = 0.130194  Min(alpha.water) = -4.92775e-08  Max(alpha.water) = 1
DICPCG:  Solving for p_rgh, Initial residual = 0.0298674, Final residual = 0.000893801, No Iterations 1
time step continuity errors : sum local = 0.00106999, global = -1.21125e-07, cumulative = 0.000319017
DICPCG:  Solving for p_rgh, Initial residual = 0.000992215, Final residual = 4.85975e-05, No Iterations 11
time step continuity errors : sum local = 5.68478e-05, global = 9.61727e-06, cumulative = 0.000328634
DICPCG:  Solving for p_rgh, Initial residual = 0.000114931, Final residual = 9.48433e-08, No Iterations 48
time step continuity errors : sum local = 1.12272e-07, global = -4.57293e-09, cumulative = 0.00032863
ExecutionTime = 0.28 s  ClockTime = 1 s

Courant Number mean: 0.0953975 max: 1.0979
Interface Courant Number mean: 0.00804322 max: 0.640067
deltaT = 0.00217014
Time = 0.0913194

smoothSolver:  Solving for alpha.water, Initial residual = 0.00313474, Final residual = 2.20673e-09, No Iterations 3
Phase-1 volume fraction = 0.130194  Min(alpha.water) = -1.76186e-14  Max(alpha.water) = 1
MULES: Correcting alpha.water
MULES: Correcting alpha.water
Phase-1 volume fraction = 0.130194  Min(alpha.water) = -5.83132e-08  Max(alpha.water) = 1
DICPCG:  Solving for p_rgh, Initial residual = 0.0296984, Final residual = 0.000601774, No Iterations 1
time step continuity errors : sum local = 0.000514777, global = -8.79914e-08, cumulative = 0.000328542
DICPCG:  Solving for p_rgh, Initial residual = 0.00066068, Final residual = 3.29637e-05, No Iterations 11
time step continuity errors : sum local = 2.75131e-05, global = 4.31889e-06, cumulative = 0.000332861
DICPCG:  Solving for p_rgh, Initial residual = 7.22847e-05, Final residual = 8.10205e-08, No Iterations 47
time step continuity errors : sum local = 6.82546e-08, global = -3.83394e-09, cumulative = 0.000332857
ExecutionTime = 0.3 s  ClockTime = 1 s

Courant Number mean: 0.0777412 max: 0.941153
Interface Courant Number mean: 0.0063917 max: 0.522674
deltaT = 0.00217014
Time = 0.0934896

smoothSolver:  Solving for alpha.water, Initial residual = 0.0032178, Final residual = 2.21853e-09, No Iterations 3
Phase-1 volume fraction = 0.130194  Min(alpha.water) = -4.02378e-15  Max(alpha.water) = 1
MULES: Correcting alpha.water
MULES: Correcting alpha.water
Phase-1 volume fraction = 0.130194  Min(alpha.water) = -1.33497e-07  Max(alpha.water) = 1
DICPCG:  Solving for p_rgh, Initial residual = 0.0379177, Final residual = 0.000478127, No Iterations 1
time step continuity errors : sum local = 0.000448504, global = -4.19652e-08, cumulative = 0.000332815
DICPCG:  Solving for p_rgh, Initial residual = 0.00053657, Final residual = 2.29249e-05, No Iterations 12
time step continuity errors : sum local = 2.07717e-05, global = 2.62901e-06, cumulative = 0.000335444
DICPCG:  Solving for p_rgh, Initial residual = 6.12781e-05, Final residual = 9.96876e-08, No Iterations 46
time step continuity errors : sum local = 9.1069e-08, global = -2.22941e-09, cumulative = 0.000335442
ExecutionTime = 0.32 s  ClockTime = 1 s

Courant Number mean: 0.0793031 max: 0.99836
Interface Courant Number mean: 0.00682108 max: 0.530486
deltaT = 0.00217014
Time = 0.0956597

smoothSolver:  Solving for alpha.water, Initial residual = 0.00330433, Final residual = 2.47662e-09, No Iterations 3
Phase-1 volume fraction = 0.130194  Min(alpha.water) = -3.44938e-15  Max(alpha.water) = 1
MULES: Correcting alpha.water
MULES: Correcting alpha.water
Phase-1 volume fraction = 0.130194  Min(alpha.water) = -3.51706e-09  Max(alpha.water) = 1
DICPCG:  Solving for p_rgh, Initial residual = 0.0350764, Final residual = 0.000597338, No Iterations 1
time step continuity errors : sum local = 0.000525511, global = 2.6437e-11, cumulative = 0.000335442
DICPCG:  Solving for p_rgh, Initial residual = 0.000665168, Final residual = 2.37368e-05, No Iterations 12
time step continuity errors : sum local = 2.0223e-05, global = 3.56703e-06, cumulative = 0.000339009
DICPCG:  Solving for p_rgh, Initial residual = 6.79574e-05, Final residual = 9.51348e-08, No Iterations 46
time step continuity errors : sum local = 8.17583e-08, global = -2.0789e-09, cumulative = 0.000339007
ExecutionTime = 0.32 s  ClockTime = 1 s

Courant Number mean: 0.0809335 max: 1.06138
Interface Courant Number mean: 0.00716973 max: 0.888697
deltaT = 0.00144676
Time = 0.0971065

smoothSolver:  Solving for alpha.water, Initial residual = 0.00225805, Final residual = 2.60454e-10, No Iterations 3
Phase-1 volume fraction = 0.130194  Min(alpha.water) = -5.22476e-13  Max(alpha.water) = 1
MULES: Correcting alpha.water
MULES: Correcting alpha.water
Phase-1 volume fraction = 0.130194  Min(alpha.water) = -2.50801e-10  Max(alpha.water) = 1
DICPCG:  Solving for p_rgh, Initial residual = 0.0245579, Final residual = 0.000557166, No Iterations 1
time step continuity errors : sum local = 0.000216344, global = -2.32672e-08, cumulative = 0.000338983
DICPCG:  Solving for p_rgh, Initial residual = 0.000599732, Final residual = 2.26275e-05, No Iterations 12
time step continuity errors : sum local = 8.60269e-06, global = 1.31956e-06, cumulative = 0.000340303
DICPCG:  Solving for p_rgh, Initial residual = 5.33974e-05, Final residual = 8.76106e-08, No Iterations 44
time step continuity errors : sum local = 3.35595e-08, global = -2.8483e-09, cumulative = 0.0003403
ExecutionTime = 0.34 s  ClockTime = 1 s

Courant Number mean: 0.0546545 max: 0.725991
Interface Courant Number mean: 0.00488695 max: 0.655604
deltaT = 0.00144676
Time = 0.0985532

smoothSolver:  Solving for alpha.water, Initial residual = 0.00229925, Final residual = 2.46834e-10, No Iterations 3
Phase-1 volume fraction = 0.130194  Min(alpha.water) = -2.83306e-15  Max(alpha.water) = 1
MULES: Correcting alpha.water
MULES: Correcting alpha.water
Phase-1 volume fraction = 0.130194  Min(alpha.water) = -3.59215e-13  Max(alpha.water) = 1
DICPCG:  Solving for p_rgh, Initial residual = 0.0229735, Final residual = 0.000599239, No Iterations 1
time step continuity errors : sum local = 0.000225221, global = -9.05349e-09, cumulative = 0.000340291
DICPCG:  Solving for p_rgh, Initial residual = 0.000644487, Final residual = 2.40679e-05, No Iterations 12
time step continuity errors : sum local = 8.8835e-06, global = 1.6308e-06, cumulative = 0.000341922
DICPCG:  Solving for p_rgh, Initial residual = 5.61368e-05, Final residual = 9.40823e-08, No Iterations 31
time step continuity errors : sum local = 3.49122e-08, global = -9.79182e-09, cumulative = 0.000341912
ExecutionTime = 0.35 s  ClockTime = 1 s

Courant Number mean: 0.0553974 max: 0.739283
Interface Courant Number mean: 0.00460509 max: 0.6466
deltaT = 0.00144676
Time = 0.1

smoothSolver:  Solving for alpha.water, Initial residual = 0.00233645, Final residual = 2.55505e-10, No Iterations 3
Phase-1 volume fraction = 0.130194  Min(alpha.water) = -2.55762e-15  Max(alpha.water) = 1
MULES: Correcting alpha.water
MULES: Correcting alpha.water
Phase-1 volume fraction = 0.130194  Min(alpha.water) = -1.19812e-11  Max(alpha.water) = 1
DICPCG:  Solving for p_rgh, Initial residual = 0.0232869, Final residual = 0.000516879, No Iterations 1
time step continuity errors : sum local = 0.000195023, global = -2.3497e-08, cumulative = 0.000341888
DICPCG:  Solving for p_rgh, Initial residual = 0.000562414, Final residual = 2.78231e-05, No Iterations 11
time step continuity errors : sum local = 1.03028e-05, global = 1.31352e-06, cumulative = 0.000343202
DICPCG:  Solving for p_rgh, Initial residual = 5.91001e-05, Final residual = 9.61604e-08, No Iterations 42
time step continuity errors : sum local = 3.57979e-08, global = -1.66214e-09, cumulative = 0.0003432
ExecutionTime = 0.37 s  ClockTime = 1 s

Courant Number mean: 0.0561251 max: 0.742894
Interface Courant Number mean: 0.00509232 max: 0.694708
deltaT = 0.0016129
Time = 0.101613

smoothSolver:  Solving for alpha.water, Initial residual = 0.0026325, Final residual = 5.25477e-10, No Iterations 3
Phase-1 volume fraction = 0.130194  Min(alpha.water) = -2.26705e-15  Max(alpha.water) = 1
MULES: Correcting alpha.water
MULES: Correcting alpha.water
Phase-1 volume fraction = 0.130194  Min(alpha.water) = -2.60998e-11  Max(alpha.water) = 1
DICPCG:  Solving for p_rgh, Initial residual = 0.0241844, Final residual = 0.000547154, No Iterations 1
time step continuity errors : sum local = 0.00025209, global = 6.11759e-09, cumulative = 0.000343206
DICPCG:  Solving for p_rgh, Initial residual = 0.000603091, Final residual = 3.00618e-05, No Iterations 11
time step continuity errors : sum local = 1.35712e-05, global = 1.86648e-06, cumulative = 0.000345073
DICPCG:  Solving for p_rgh, Initial residual = 6.23856e-05, Final residual = 8.37627e-08, No Iterations 39
time step continuity errors : sum local = 3.80327e-08, global = -1.31693e-09, cumulative = 0.000345072
ExecutionTime = 0.39 s  ClockTime = 1 s

Courant Number mean: 0.0633906 max: 0.825493
Interface Courant Number mean: 0.00594074 max: 0.762704
deltaT = 0.00179211
Time = 0.103405

smoothSolver:  Solving for alpha.water, Initial residual = 0.00295962, Final residual = 1.09131e-09, No Iterations 3
Phase-1 volume fraction = 0.130194  Min(alpha.water) = -2.02371e-15  Max(alpha.water) = 1
MULES: Correcting alpha.water
MULES: Correcting alpha.water
Phase-1 volume fraction = 0.130194  Min(alpha.water) = -1.45153e-10  Max(alpha.water) = 1
DICPCG:  Solving for p_rgh, Initial residual = 0.0252752, Final residual = 0.000641446, No Iterations 1
time step continuity errors : sum local = 0.000357197, global = -1.24514e-08, cumulative = 0.000345059
DICPCG:  Solving for p_rgh, Initial residual = 0.000708051, Final residual = 3.43095e-05, No Iterations 11
time step continuity errors : sum local = 1.87148e-05, global = 2.46885e-06, cumulative = 0.000347528
DICPCG:  Solving for p_rgh, Initial residual = 7.50823e-05, Final residual = 9.9293e-08, No Iterations 44
time step continuity errors : sum local = 5.45238e-08, global = -4.00345e-09, cumulative = 0.000347524
ExecutionTime = 0.4 s  ClockTime = 1 s

Courant Number mean: 0.0714172 max: 0.910458
Interface Courant Number mean: 0.00677062 max: 0.910458
deltaT = 0.00194146
Time = 0.105346

smoothSolver:  Solving for alpha.water, Initial residual = 0.0032675, Final residual = 1.96764e-09, No Iterations 3
Phase-1 volume fraction = 0.130194  Min(alpha.water) = -1.85874e-15  Max(alpha.water) = 1
MULES: Correcting alpha.water
MULES: Correcting alpha.water
Phase-1 volume fraction = 0.130194  Min(alpha.water) = -1.10262e-09  Max(alpha.water) = 1
DICPCG:  Solving for p_rgh, Initial residual = 0.0285727, Final residual = 0.000676884, No Iterations 1
time step continuity errors : sum local = 0.000449416, global = -2.30431e-08, cumulative = 0.000347501
DICPCG:  Solving for p_rgh, Initial residual = 0.00075898, Final residual = 3.41193e-05, No Iterations 11
time step continuity errors : sum local = 2.21222e-05, global = 3.22272e-06, cumulative = 0.000350724
DICPCG:  Solving for p_rgh, Initial residual = 8.13284e-05, Final residual = 7.5182e-08, No Iterations 45
time step continuity errors : sum local = 4.91136e-08, global = -5.85959e-09, cumulative = 0.000350718
ExecutionTime = 0.4 s  ClockTime = 1 s

Courant Number mean: 0.0784972 max: 0.981996
Interface Courant Number mean: 0.00723737 max: 0.981996
deltaT = 0.00194146
Time = 0.107288

smoothSolver:  Solving for alpha.water, Initial residual = 0.0033416, Final residual = 2.13358e-09, No Iterations 3
Phase-1 volume fraction = 0.130194  Min(alpha.water) = -1.69662e-15  Max(alpha.water) = 1
MULES: Correcting alpha.water
MULES: Correcting alpha.water
Phase-1 volume fraction = 0.130194  Min(alpha.water) = -3.34354e-09  Max(alpha.water) = 1
DICPCG:  Solving for p_rgh, Initial residual = 0.0273058, Final residual = 0.000687055, No Iterations 1
time step continuity errors : sum local = 0.000459244, global = -3.26342e-08, cumulative = 0.000350685
DICPCG:  Solving for p_rgh, Initial residual = 0.000767656, Final residual = 2.75401e-05, No Iterations 12
time step continuity errors : sum local = 1.80118e-05, global = 3.13241e-06, cumulative = 0.000353818
DICPCG:  Solving for p_rgh, Initial residual = 7.91553e-05, Final residual = 8.70283e-08, No Iterations 45
time step continuity errors : sum local = 5.73864e-08, global = -5.38473e-09, cumulative = 0.000353812
ExecutionTime = 0.42 s  ClockTime = 1 s

Courant Number mean: 0.079699 max: 0.979017
Interface Courant Number mean: 0.00691687 max: 0.979017
deltaT = 0.00194146
Time = 0.109229

smoothSolver:  Solving for alpha.water, Initial residual = 0.0034158, Final residual = 2.41094e-09, No Iterations 3
Phase-1 volume fraction = 0.130194  Min(alpha.water) = -1.53625e-15  Max(alpha.water) = 1
MULES: Correcting alpha.water
MULES: Correcting alpha.water
Phase-1 volume fraction = 0.130194  Min(alpha.water) = -1.24663e-09  Max(alpha.water) = 1
DICPCG:  Solving for p_rgh, Initial residual = 0.0289847, Final residual = 0.000594585, No Iterations 1
time step continuity errors : sum local = 0.000421922, global = -2.15916e-08, cumulative = 0.000353791
DICPCG:  Solving for p_rgh, Initial residual = 0.000671495, Final residual = 2.2657e-05, No Iterations 12
time step continuity errors : sum local = 1.56678e-05, global = 2.67535e-06, cumulative = 0.000356466
DICPCG:  Solving for p_rgh, Initial residual = 7.2279e-05, Final residual = 9.73624e-08, No Iterations 45
time step continuity errors : sum local = 6.78585e-08, global = -5.42462e-09, cumulative = 0.000356461
ExecutionTime = 0.42 s  ClockTime = 1 s

Courant Number mean: 0.0809462 max: 0.982909
Interface Courant Number mean: 0.00735825 max: 0.982909
deltaT = 0.00194146
Time = 0.111171

smoothSolver:  Solving for alpha.water, Initial residual = 0.00346522, Final residual = 2.68888e-09, No Iterations 3
Phase-1 volume fraction = 0.130194  Min(alpha.water) = -1.37603e-15  Max(alpha.water) = 1
MULES: Correcting alpha.water
MULES: Correcting alpha.water
Phase-1 volume fraction = 0.130194  Min(alpha.water) = -4.80326e-10  Max(alpha.water) = 1
DICPCG:  Solving for p_rgh, Initial residual = 0.0341408, Final residual = 0.000579175, No Iterations 1
time step continuity errors : sum local = 0.000428621, global = -1.51264e-08, cumulative = 0.000356445
DICPCG:  Solving for p_rgh, Initial residual = 0.000662371, Final residual = 2.5949e-05, No Iterations 12
time step continuity errors : sum local = 1.86051e-05, global = 2.48012e-06, cumulative = 0.000358926
DICPCG:  Solving for p_rgh, Initial residual = 7.68765e-05, Final residual = 9.8209e-08, No Iterations 45
time step continuity errors : sum local = 7.09578e-08, global = -4.42186e-09, cumulative = 0.000358921
ExecutionTime = 0.45 s  ClockTime = 1 s

Courant Number mean: 0.0822627 max: 0.996594
Interface Courant Number mean: 0.00759127 max: 0.996594
deltaT = 0.00194146
Time = 0.113112

smoothSolver:  Solving for alpha.water, Initial residual = 0.00349117, Final residual = 2.86523e-09, No Iterations 3
Phase-1 volume fraction = 0.130194  Min(alpha.water) = -1.21309e-15  Max(alpha.water) = 1
MULES: Correcting alpha.water
MULES: Correcting alpha.water
Phase-1 volume fraction = 0.130194  Min(alpha.water) = -3.15935e-10  Max(alpha.water) = 1
DICPCG:  Solving for p_rgh, Initial residual = 0.0311103, Final residual = 0.000606673, No Iterations 1
time step continuity errors : sum local = 0.000427879, global = -1.08742e-08, cumulative = 0.00035891
DICPCG:  Solving for p_rgh, Initial residual = 0.000697606, Final residual = 2.41277e-05, No Iterations 12
time step continuity errors : sum local = 1.65579e-05, global = 3.14943e-06, cumulative = 0.00036206
DICPCG:  Solving for p_rgh, Initial residual = 7.60287e-05, Final residual = 9.41124e-08, No Iterations 40
time step continuity errors : sum local = 6.50912e-08, global = 6.32457e-09, cumulative = 0.000362066
ExecutionTime = 0.46 s  ClockTime = 1 s

Courant Number mean: 0.0834892 max: 1.03368
Interface Courant Number mean: 0.00723341 max: 1.03368
deltaT = 0.00184438
Time = 0.114957

smoothSolver:  Solving for alpha.water, Initial residual = 0.00339025, Final residual = 2.18059e-09, No Iterations 3
Phase-1 volume fraction = 0.130194  Min(alpha.water) = -1.0532e-15  Max(alpha.water) = 1
MULES: Correcting alpha.water
MULES: Correcting alpha.water
Phase-1 volume fraction = 0.130194  Min(alpha.water) = -2.71807e-10  Max(alpha.water) = 1
DICPCG:  Solving for p_rgh, Initial residual = 0.0297793, Final residual = 0.000549647, No Iterations 1
time step continuity errors : sum local = 0.000345821, global = -1.20949e-08, cumulative = 0.000362054
DICPCG:  Solving for p_rgh, Initial residual = 0.000626984, Final residual = 2.10632e-05, No Iterations 12
time step continuity errors : sum local = 1.29098e-05, global = 2.53402e-06, cumulative = 0.000364588
DICPCG:  Solving for p_rgh, Initial residual = 6.47285e-05, Final residual = 9.21008e-08, No Iterations 45
time step continuity errors : sum local = 5.68945e-08, global = -2.88499e-09, cumulative = 0.000364585
ExecutionTime = 0.46 s  ClockTime = 1 s

Courant Number mean: 0.0802442 max: 1.02839
Interface Courant Number mean: 0.00663549 max: 0.98772
deltaT = 0.00175217
Time = 0.116709

smoothSolver:  Solving for alpha.water, Initial residual = 0.00327196, Final residual = 1.7154e-09, No Iterations 3
Phase-1 volume fraction = 0.130194  Min(alpha.water) = -9.05876e-16  Max(alpha.water) = 1
MULES: Correcting alpha.water
MULES: Correcting alpha.water
Phase-1 volume fraction = 0.130194  Min(alpha.water) = -8.79207e-12  Max(alpha.water) = 1
DICPCG:  Solving for p_rgh, Initial residual = 0.0284452, Final residual = 0.000558017, No Iterations 1
time step continuity errors : sum local = 0.000313573, global = -3.71843e-08, cumulative = 0.000364548
DICPCG:  Solving for p_rgh, Initial residual = 0.000632989, Final residual = 2.19287e-05, No Iterations 12
time step continuity errors : sum local = 1.2019e-05, global = 2.01925e-06, cumulative = 0.000366567
DICPCG:  Solving for p_rgh, Initial residual = 6.45091e-05, Final residual = 6.80865e-08, No Iterations 45
time step continuity errors : sum local = 3.76039e-08, global = -4.0162e-09, cumulative = 0.000366563
ExecutionTime = 0.48 s  ClockTime = 1 s

Courant Number mean: 0.0770321 max: 1.02356
Interface Courant Number mean: 0.00640406 max: 0.97956
deltaT = 0.00166456
Time = 0.118373

smoothSolver:  Solving for alpha.water, Initial residual = 0.0031434, Final residual = 1.319e-09, No Iterations 3
Phase-1 volume fraction = 0.130194  Min(alpha.water) = -7.71207e-16  Max(alpha.water) = 1
MULES: Correcting alpha.water
MULES: Correcting alpha.water
Phase-1 volume fraction = 0.130194  Min(alpha.water) = -7.64545e-12  Max(alpha.water) = 1
DICPCG:  Solving for p_rgh, Initial residual = 0.0245127, Final residual = 0.000597032, No Iterations 1
time step continuity errors : sum local = 0.00029628, global = -2.25229e-08, cumulative = 0.000366541
DICPCG:  Solving for p_rgh, Initial residual = 0.000670071, Final residual = 3.34257e-05, No Iterations 11
time step continuity errors : sum local = 1.62518e-05, global = 1.56124e-06, cumulative = 0.000368102
DICPCG:  Solving for p_rgh, Initial residual = 7.7176e-05, Final residual = 9.21294e-08, No Iterations 44
time step continuity errors : sum local = 4.51216e-08, global = -1.82715e-09, cumulative = 0.0003681
ExecutionTime = 0.5 s  ClockTime = 1 s

Courant Number mean: 0.0739036 max: 1.01706
Interface Courant Number mean: 0.00620345 max: 0.964117
deltaT = 0.00158133
Time = 0.119955

smoothSolver:  Solving for alpha.water, Initial residual = 0.00301406, Final residual = 9.87173e-10, No Iterations 3
Phase-1 volume fraction = 0.130194  Min(alpha.water) = -6.46583e-16  Max(alpha.water) = 1
MULES: Correcting alpha.water
MULES: Correcting alpha.water
Phase-1 volume fraction = 0.130194  Min(alpha.water) = -5.84646e-12  Max(alpha.water) = 1
DICPCG:  Solving for p_rgh, Initial residual = 0.0229059, Final residual = 0.000607782, No Iterations 1
time step continuity errors : sum local = 0.000272276, global = -1.16526e-08, cumulative = 0.000368088
DICPCG:  Solving for p_rgh, Initial residual = 0.000684478, Final residual = 2.54666e-05, No Iterations 12
time step continuity errors : sum local = 1.11974e-05, global = 1.45335e-06, cumulative = 0.000369542
DICPCG:  Solving for p_rgh, Initial residual = 6.90196e-05, Final residual = 9.95439e-08, No Iterations 43
time step continuity errors : sum local = 4.40885e-08, global = -2.37136e-09, cumulative = 0.000369539
ExecutionTime = 0.51 s  ClockTime = 1 s

Courant Number mean: 0.0709421 max: 1.00674
Interface Courant Number mean: 0.00596526 max: 0.941609
deltaT = 0.00150226
Time = 0.121457

smoothSolver:  Solving for alpha.water, Initial residual = 0.00287733, Final residual = 7.31203e-10, No Iterations 3
Phase-1 volume fraction = 0.130194  Min(alpha.water) = -5.29061e-16  Max(alpha.water) = 1
MULES: Correcting alpha.water
MULES: Correcting alpha.water
Phase-1 volume fraction = 0.130194  Min(alpha.water) = -4.16407e-12  Max(alpha.water) = 1
DICPCG:  Solving for p_rgh, Initial residual = 0.0210382, Final residual = 0.00057426, No Iterations 1
time step continuity errors : sum local = 0.000233719, global = -8.13827e-09, cumulative = 0.000369531
DICPCG:  Solving for p_rgh, Initial residual = 0.000655079, Final residual = 2.44583e-05, No Iterations 12
time step continuity errors : sum local = 9.79818e-06, global = 1.25257e-06, cumulative = 0.000370784
DICPCG:  Solving for p_rgh, Initial residual = 6.53246e-05, Final residual = 9.0516e-08, No Iterations 43
time step continuity errors : sum local = 3.65349e-08, global = -2.36921e-09, cumulative = 0.000370781
ExecutionTime = 0.51 s  ClockTime = 1 s

Courant Number mean: 0.0680935 max: 0.991411
Interface Courant Number mean: 0.00558058 max: 0.911887
deltaT = 0.00150226
Time = 0.122959

smoothSolver:  Solving for alpha.water, Initial residual = 0.00292381, Final residual = 7.2269e-10, No Iterations 3
Phase-1 volume fraction = 0.130194  Min(alpha.water) = -4.48015e-16  Max(alpha.water) = 1
MULES: Correcting alpha.water
MULES: Correcting alpha.water
Phase-1 volume fraction = 0.130194  Min(alpha.water) = -5.14549e-12  Max(alpha.water) = 1
DICPCG:  Solving for p_rgh, Initial residual = 0.0221774, Final residual = 0.000617684, No Iterations 1
time step continuity errors : sum local = 0.000257382, global = -5.85249e-09, cumulative = 0.000370776
DICPCG:  Solving for p_rgh, Initial residual = 0.000709969, Final residual = 3.50652e-05, No Iterations 9
time step continuity errors : sum local = 1.43708e-05, global = 3.1929e-07, cumulative = 0.000371095
DICPCG:  Solving for p_rgh, Initial residual = 7.8403e-05, Final residual = 9.72908e-08, No Iterations 41
time step continuity errors : sum local = 4.01066e-08, global = -5.90762e-10, cumulative = 0.000371094
ExecutionTime = 0.51 s  ClockTime = 1 s

Courant Number mean: 0.0687255 max: 1.02718
Interface Courant Number mean: 0.00539637 max: 0.921847
deltaT = 0.0014232
Time = 0.124382

smoothSolver:  Solving for alpha.water, Initial residual = 0.00280224, Final residual = 5.35668e-10, No Iterations 3
Phase-1 volume fraction = 0.130194  Min(alpha.water) = -4.15829e-16  Max(alpha.water) = 1
MULES: Correcting alpha.water
MULES: Correcting alpha.water
Phase-1 volume fraction = 0.130194  Min(alpha.water) = -1.96937e-12  Max(alpha.water) = 1
DICPCG:  Solving for p_rgh, Initial residual = 0.0212098, Final residual = 0.000565709, No Iterations 1
time step continuity errors : sum local = 0.000217353, global = -2.22189e-09, cumulative = 0.000371092
DICPCG:  Solving for p_rgh, Initial residual = 0.000656791, Final residual = 3.00036e-05, No Iterations 8
time step continuity errors : sum local = 1.13638e-05, global = 7.66907e-08, cumulative = 0.000371169
DICPCG:  Solving for p_rgh, Initial residual = 7.24939e-05, Final residual = 7.70818e-08, No Iterations 45
time step continuity errors : sum local = 2.93495e-08, global = -2.29599e-09, cumulative = 0.000371166
ExecutionTime = 0.53 s  ClockTime = 1 s

Courant Number mean: 0.0657049 max: 1.0023
Interface Courant Number mean: 0.00528434 max: 0.96043
deltaT = 0.00134829
Time = 0.125731

smoothSolver:  Solving for alpha.water, Initial residual = 0.00269325, Final residual = 3.95747e-10, No Iterations 3
Phase-1 volume fraction = 0.130194  Min(alpha.water) = -3.84428e-16  Max(alpha.water) = 1
MULES: Correcting alpha.water
MULES: Correcting alpha.water
Phase-1 volume fraction = 0.130194  Min(alpha.water) = -2.49712e-12  Max(alpha.water) = 1
DICPCG:  Solving for p_rgh, Initial residual = 0.0210264, Final residual = 0.000441821, No Iterations 1
time step continuity errors : sum local = 0.000161289, global = -6.35869e-10, cumulative = 0.000371166
DICPCG:  Solving for p_rgh, Initial residual = 0.00051286, Final residual = 2.51097e-05, No Iterations 8
time step continuity errors : sum local = 9.0156e-06, global = 4.74891e-08, cumulative = 0.000371213
DICPCG:  Solving for p_rgh, Initial residual = 6.11485e-05, Final residual = 9.70506e-08, No Iterations 45
time step continuity errors : sum local = 3.50294e-08, global = -1.19388e-09, cumulative = 0.000371212
ExecutionTime = 0.54 s  ClockTime = 1 s

Courant Number mean: 0.0627152 max: 0.974574
Interface Courant Number mean: 0.00486386 max: 0.917218
deltaT = 0.00134829
Time = 0.127079

smoothSolver:  Solving for alpha.water, Initial residual = 0.00272751, Final residual = 4.01973e-10, No Iterations 3
Phase-1 volume fraction = 0.130194  Min(alpha.water) = -3.51852e-16  Max(alpha.water) = 1
MULES: Correcting alpha.water
MULES: Correcting alpha.water
Phase-1 volume fraction = 0.130194  Min(alpha.water) = -5.01808e-11  Max(alpha.water) = 1
DICPCG:  Solving for p_rgh, Initial residual = 0.0242465, Final residual = 0.000411371, No Iterations 1
time step continuity errors : sum local = 0.000156646, global = -1.28044e-09, cumulative = 0.000371211
DICPCG:  Solving for p_rgh, Initial residual = 0.0004836, Final residual = 2.38218e-05, No Iterations 8
time step continuity errors : sum local = 8.89307e-06, global = 2.60351e-08, cumulative = 0.000371237
DICPCG:  Solving for p_rgh, Initial residual = 6.88203e-05, Final residual = 8.46021e-08, No Iterations 43
time step continuity errors : sum local = 3.17733e-08, global = 5.56243e-09, cumulative = 0.000371242
ExecutionTime = 0.54 s  ClockTime = 1 s

Courant Number mean: 0.0631743 max: 0.99372
Interface Courant Number mean: 0.00515818 max: 0.908979
deltaT = 0.00134829
Time = 0.128427

smoothSolver:  Solving for alpha.water, Initial residual = 0.00275739, Final residual = 4.10845e-10, No Iterations 3
Phase-1 volume fraction = 0.130194  Min(alpha.water) = -3.36164e-16  Max(alpha.water) = 1
MULES: Correcting alpha.water
MULES: Correcting alpha.water
Phase-1 volume fraction = 0.130194  Min(alpha.water) = -1.4406e-10  Max(alpha.water) = 1
DICPCG:  Solving for p_rgh, Initial residual = 0.0226723, Final residual = 0.000460642, No Iterations 1
time step continuity errors : sum local = 0.000170499, global = 1.28792e-08, cumulative = 0.000371255
DICPCG:  Solving for p_rgh, Initial residual = 0.000567083, Final residual = 2.82161e-05, No Iterations 9
time step continuity errors : sum local = 1.02645e-05, global = 8.62974e-08, cumulative = 0.000371342
DICPCG:  Solving for p_rgh, Initial residual = 7.88341e-05, Final residual = 9.17869e-08, No Iterations 46
time step continuity errors : sum local = 3.36552e-08, global = -1.2385e-09, cumulative = 0.00037134
ExecutionTime = 0.55 s  ClockTime = 1 s

Courant Number mean: 0.0636637 max: 0.994939
Interface Courant Number mean: 0.00523942 max: 0.877892
deltaT = 0.00134829
Time = 0.129776

smoothSolver:  Solving for alpha.water, Initial residual = 0.00278111, Final residual = 4.12627e-10, No Iterations 3
Phase-1 volume fraction = 0.130194  Min(alpha.water) = -3.21366e-16  Max(alpha.water) = 1
MULES: Correcting alpha.water
MULES: Correcting alpha.water
Phase-1 volume fraction = 0.130194  Min(alpha.water) = -8.97466e-10  Max(alpha.water) = 1
DICPCG:  Solving for p_rgh, Initial residual = 0.0225406, Final residual = 0.000498412, No Iterations 1
time step continuity errors : sum local = 0.000181748, global = -7.27939e-09, cumulative = 0.000371333
DICPCG:  Solving for p_rgh, Initial residual = 0.000611702, Final residual = 3.05017e-05, No Iterations 12
time step continuity errors : sum local = 1.09219e-05, global = 5.916e-07, cumulative = 0.000371925
DICPCG:  Solving for p_rgh, Initial residual = 0.000109416, Final residual = 9.50585e-08, No Iterations 46
time step continuity errors : sum local = 3.43375e-08, global = -4.06128e-09, cumulative = 0.000371921
ExecutionTime = 0.57 s  ClockTime = 1 s

Courant Number mean: 0.0641825 max: 0.947046
Interface Courant Number mean: 0.00536508 max: 0.947046
deltaT = 0.00134829
Time = 0.131124

smoothSolver:  Solving for alpha.water, Initial residual = 0.00281712, Final residual = 4.09664e-10, No Iterations 3
Phase-1 volume fraction = 0.130194  Min(alpha.water) = -3.05176e-16  Max(alpha.water) = 1
MULES: Correcting alpha.water
MULES: Correcting alpha.water
Phase-1 volume fraction = 0.130194  Min(alpha.water) = -7.54666e-10  Max(alpha.water) = 1
DICPCG:  Solving for p_rgh, Initial residual = 0.0205494, Final residual = 0.000529212, No Iterations 1
time step continuity errors : sum local = 0.000188121, global = -1.07006e-08, cumulative = 0.00037191
DICPCG:  Solving for p_rgh, Initial residual = 0.000649583, Final residual = 3.13845e-05, No Iterations 9
time step continuity errors : sum local = 1.09757e-05, global = 8.81019e-08, cumulative = 0.000371998
DICPCG:  Solving for p_rgh, Initial residual = 0.000100288, Final residual = 7.7962e-08, No Iterations 49
time step continuity errors : sum local = 2.74477e-08, global = 4.52799e-11, cumulative = 0.000371998
ExecutionTime = 0.58 s  ClockTime = 1 s

Courant Number mean: 0.0647249 max: 0.897789
Interface Courant Number mean: 0.00542109 max: 0.897789
deltaT = 0.00145201
Time = 0.132576

smoothSolver:  Solving for alpha.water, Initial residual = 0.00306406, Final residual = 6.31312e-10, No Iterations 3
Phase-1 volume fraction = 0.130194  Min(alpha.water) = -2.85442e-16  Max(alpha.water) = 1
MULES: Correcting alpha.water
MULES: Correcting alpha.water
Phase-1 volume fraction = 0.130194  Min(alpha.water) = -1.16709e-10  Max(alpha.water) = 1
DICPCG:  Solving for p_rgh, Initial residual = 0.0218222, Final residual = 0.000591386, No Iterations 1
time step continuity errors : sum local = 0.000241041, global = 9.01909e-09, cumulative = 0.000372007
DICPCG:  Solving for p_rgh, Initial residual = 0.000733375, Final residual = 3.58376e-05, No Iterations 13
time step continuity errors : sum local = 1.43729e-05, global = 7.03765e-07, cumulative = 0.000372711
DICPCG:  Solving for p_rgh, Initial residual = 0.000122719, Final residual = 9.79152e-08, No Iterations 49
time step continuity errors : sum local = 3.97071e-08, global = -1.20675e-10, cumulative = 0.000372711
ExecutionTime = 0.6 s  ClockTime = 1 s

Courant Number mean: 0.0703674 max: 0.898211
Interface Courant Number mean: 0.00630218 max: 0.898211
deltaT = 0.00158401
Time = 0.13416

smoothSolver:  Solving for alpha.water, Initial residual = 0.00338298, Final residual = 1.0443e-09, No Iterations 3
Phase-1 volume fraction = 0.130194  Min(alpha.water) = -2.59996e-16  Max(alpha.water) = 1
MULES: Correcting alpha.water
MULES: Correcting alpha.water
Phase-1 volume fraction = 0.130194  Min(alpha.water) = -1.65642e-10  Max(alpha.water) = 1
DICPCG:  Solving for p_rgh, Initial residual = 0.0210264, Final residual = 0.000665373, No Iterations 1
time step continuity errors : sum local = 0.000317677, global = -9.80866e-10, cumulative = 0.00037271
DICPCG:  Solving for p_rgh, Initial residual = 0.000783614, Final residual = 3.75876e-05, No Iterations 13
time step continuity errors : sum local = 1.76914e-05, global = 1.26143e-06, cumulative = 0.000373971
DICPCG:  Solving for p_rgh, Initial residual = 0.000133004, Final residual = 8.04307e-08, No Iterations 49
time step continuity errors : sum local = 3.84208e-08, global = -6.49284e-10, cumulative = 0.00037397
ExecutionTime = 0.62 s  ClockTime = 1 s

Courant Number mean: 0.0774795 max: 0.919334
Interface Courant Number mean: 0.00669673 max: 0.919334
deltaT = 0.00158401
Time = 0.135744

smoothSolver:  Solving for alpha.water, Initial residual = 0.00340713, Final residual = 1.0512e-09, No Iterations 3
Phase-1 volume fraction = 0.130194  Min(alpha.water) = -2.30238e-16  Max(alpha.water) = 1
MULES: Correcting alpha.water
MULES: Correcting alpha.water
Phase-1 volume fraction = 0.130194  Min(alpha.water) = -7.31239e-11  Max(alpha.water) = 1
DICPCG:  Solving for p_rgh, Initial residual = 0.0202761, Final residual = 0.000620032, No Iterations 1
time step continuity errors : sum local = 0.000298, global = -1.27963e-08, cumulative = 0.000373958
DICPCG:  Solving for p_rgh, Initial residual = 0.000745039, Final residual = 3.4139e-05, No Iterations 13
time step continuity errors : sum local = 1.61724e-05, global = 1.20897e-06, cumulative = 0.000375167
DICPCG:  Solving for p_rgh, Initial residual = 0.00011901, Final residual = 8.80828e-08, No Iterations 45
time step continuity errors : sum local = 4.22653e-08, global = 3.38004e-09, cumulative = 0.00037517
ExecutionTime = 0.62 s  ClockTime = 1 s

Courant Number mean: 0.078097 max: 0.882747
Interface Courant Number mean: 0.00656228 max: 0.882747
deltaT = 0.00158401
Time = 0.137328

smoothSolver:  Solving for alpha.water, Initial residual = 0.00342702, Final residual = 1.05754e-09, No Iterations 3
Phase-1 volume fraction = 0.130194  Min(alpha.water) = -1.94595e-16  Max(alpha.water) = 1
MULES: Correcting alpha.water
MULES: Correcting alpha.water
Phase-1 volume fraction = 0.130194  Min(alpha.water) = -4.99455e-12  Max(alpha.water) = 1
DICPCG:  Solving for p_rgh, Initial residual = 0.0208957, Final residual = 0.000613168, No Iterations 1
time step continuity errors : sum local = 0.000299728, global = -3.5478e-09, cumulative = 0.000375166
DICPCG:  Solving for p_rgh, Initial residual = 0.000719008, Final residual = 3.38292e-05, No Iterations 13
time step continuity errors : sum local = 1.63079e-05, global = 1.41038e-06, cumulative = 0.000376577
DICPCG:  Solving for p_rgh, Initial residual = 0.000109013, Final residual = 9.83437e-08, No Iterations 44
time step continuity errors : sum local = 4.80736e-08, global = -2.56072e-09, cumulative = 0.000376574
ExecutionTime = 0.63 s  ClockTime = 1 s

Courant Number mean: 0.0786544 max: 0.874964
Interface Courant Number mean: 0.00699134 max: 0.874964
deltaT = 0.00158401
Time = 0.138912

smoothSolver:  Solving for alpha.water, Initial residual = 0.00348801, Final residual = 1.07576e-09, No Iterations 3
Phase-1 volume fraction = 0.130194  Min(alpha.water) = -1.70837e-16  Max(alpha.water) = 1
MULES: Correcting alpha.water
MULES: Correcting alpha.water
Phase-1 volume fraction = 0.130194  Min(alpha.water) = -1.21095e-11  Max(alpha.water) = 1
DICPCG:  Solving for p_rgh, Initial residual = 0.0214089, Final residual = 0.000594374, No Iterations 1
time step continuity errors : sum local = 0.00029745, global = -2.40727e-08, cumulative = 0.00037655
DICPCG:  Solving for p_rgh, Initial residual = 0.000687063, Final residual = 3.35997e-05, No Iterations 13
time step continuity errors : sum local = 1.65734e-05, global = 1.20202e-06, cumulative = 0.000377752
DICPCG:  Solving for p_rgh, Initial residual = 0.000109545, Final residual = 8.38224e-08, No Iterations 48
time step continuity errors : sum local = 4.1967e-08, global = -2.05082e-09, cumulative = 0.00037775
ExecutionTime = 0.65 s  ClockTime = 1 s

Courant Number mean: 0.0791483 max: 0.88785
Interface Courant Number mean: 0.00717039 max: 0.88785
deltaT = 0.00158401
Time = 0.140496

smoothSolver:  Solving for alpha.water, Initial residual = 0.00352608, Final residual = 1.09031e-09, No Iterations 3
Phase-1 volume fraction = 0.130194  Min(alpha.water) = -1.62152e-16  Max(alpha.water) = 1
MULES: Correcting alpha.water
MULES: Correcting alpha.water
Phase-1 volume fraction = 0.130194  Min(alpha.water) = -2.168e-11  Max(alpha.water) = 1
DICPCG:  Solving for p_rgh, Initial residual = 0.0203554, Final residual = 0.000602497, No Iterations 1
time step continuity errors : sum local = 0.000306785, global = -1.48865e-08, cumulative = 0.000377735
DICPCG:  Solving for p_rgh, Initial residual = 0.000686708, Final residual = 3.19153e-05, No Iterations 13
time step continuity errors : sum local = 1.6034e-05, global = 1.21021e-06, cumulative = 0.000378946
DICPCG:  Solving for p_rgh, Initial residual = 0.000103166, Final residual = 9.02535e-08, No Iterations 48
time step continuity errors : sum local = 4.59101e-08, global = -1.66643e-09, cumulative = 0.000378944
ExecutionTime = 0.65 s  ClockTime = 1 s

Courant Number mean: 0.0796295 max: 0.884956
Interface Courant Number mean: 0.00763342 max: 0.884956
deltaT = 0.00158401
Time = 0.14208

smoothSolver:  Solving for alpha.water, Initial residual = 0.00362072, Final residual = 1.10123e-09, No Iterations 3
Phase-1 volume fraction = 0.130194  Min(alpha.water) = -1.51617e-16  Max(alpha.water) = 1
MULES: Correcting alpha.water
MULES: Correcting alpha.water
Phase-1 volume fraction = 0.130194  Min(alpha.water) = -8.32544e-11  Max(alpha.water) = 1
DICPCG:  Solving for p_rgh, Initial residual = 0.0214121, Final residual = 0.000518348, No Iterations 1
time step continuity errors : sum local = 0.000276237, global = -1.19596e-08, cumulative = 0.000378932
DICPCG:  Solving for p_rgh, Initial residual = 0.000604496, Final residual = 2.30729e-05, No Iterations 14
time step continuity errors : sum local = 1.21062e-05, global = 9.45367e-07, cumulative = 0.000379877
DICPCG:  Solving for p_rgh, Initial residual = 9.69205e-05, Final residual = 9.96836e-08, No Iterations 48
time step continuity errors : sum local = 5.31309e-08, global = -6.36853e-10, cumulative = 0.000379877
ExecutionTime = 0.66 s  ClockTime = 1 s

Courant Number mean: 0.0800502 max: 0.885091
Interface Courant Number mean: 0.0077333 max: 0.885091
deltaT = 0.00158401
Time = 0.143664

smoothSolver:  Solving for alpha.water, Initial residual = 0.00367504, Final residual = 1.10096e-09, No Iterations 3
Phase-1 volume fraction = 0.130194  Min(alpha.water) = -1.39056e-16  Max(alpha.water) = 1
MULES: Correcting alpha.water
MULES: Correcting alpha.water
Phase-1 volume fraction = 0.130194  Min(alpha.water) = -2.25591e-11  Max(alpha.water) = 1
DICPCG:  Solving for p_rgh, Initial residual = 0.0228833, Final residual = 0.000479935, No Iterations 1
time step continuity errors : sum local = 0.000265707, global = -7.26389e-09, cumulative = 0.000379869
DICPCG:  Solving for p_rgh, Initial residual = 0.000572346, Final residual = 1.78762e-05, No Iterations 14
time step continuity errors : sum local = 9.71637e-06, global = 7.31803e-07, cumulative = 0.000380601
DICPCG:  Solving for p_rgh, Initial residual = 8.86421e-05, Final residual = 9.12939e-08, No Iterations 47
time step continuity errors : sum local = 5.0255e-08, global = -3.37972e-09, cumulative = 0.000380598
ExecutionTime = 0.66 s  ClockTime = 1 s

Courant Number mean: 0.080477 max: 0.880992
Interface Courant Number mean: 0.00862171 max: 0.880992
deltaT = 0.00158401
Time = 0.145248

smoothSolver:  Solving for alpha.water, Initial residual = 0.00371301, Final residual = 1.09506e-09, No Iterations 3
Phase-1 volume fraction = 0.130194  Min(alpha.water) = -1.25305e-16  Max(alpha.water) = 1
MULES: Correcting alpha.water
MULES: Correcting alpha.water
Phase-1 volume fraction = 0.130194  Min(alpha.water) = -5.98234e-09  Max(alpha.water) = 1
DICPCG:  Solving for p_rgh, Initial residual = 0.0206565, Final residual = 0.000509455, No Iterations 1
time step continuity errors : sum local = 0.000277758, global = -9.22438e-09, cumulative = 0.000380589
DICPCG:  Solving for p_rgh, Initial residual = 0.000594975, Final residual = 2.02713e-05, No Iterations 14
time step continuity errors : sum local = 1.08773e-05, global = 8.23603e-07, cumulative = 0.000381412
DICPCG:  Solving for p_rgh, Initial residual = 9.3037e-05, Final residual = 9.50534e-08, No Iterations 47
time step continuity errors : sum local = 5.15507e-08, global = -3.31818e-09, cumulative = 0.000381409
ExecutionTime = 0.69 s  ClockTime = 1 s

Courant Number mean: 0.0808729 max: 0.863426
Interface Courant Number mean: 0.00816194 max: 0.863426
deltaT = 0.00158401
Time = 0.146832

smoothSolver:  Solving for alpha.water, Initial residual = 0.00373972, Final residual = 1.11205e-09, No Iterations 3
Phase-1 volume fraction = 0.130194  Min(alpha.water) = -1.11026e-16  Max(alpha.water) = 1
MULES: Correcting alpha.water
MULES: Correcting alpha.water
Phase-1 volume fraction = 0.130194  Min(alpha.water) = -8.30315e-10  Max(alpha.water) = 1
DICPCG:  Solving for p_rgh, Initial residual = 0.0206676, Final residual = 0.000513471, No Iterations 1
time step continuity errors : sum local = 0.000279119, global = -7.14726e-09, cumulative = 0.000381402
DICPCG:  Solving for p_rgh, Initial residual = 0.000611711, Final residual = 2.12121e-05, No Iterations 14
time step continuity errors : sum local = 1.13523e-05, global = 1.41483e-06, cumulative = 0.000382817
DICPCG:  Solving for p_rgh, Initial residual = 9.18759e-05, Final residual = 9.02473e-08, No Iterations 48
time step continuity errors : sum local = 4.894e-08, global = -8.95701e-10, cumulative = 0.000382816
ExecutionTime = 0.71 s  ClockTime = 1 s

Courant Number mean: 0.0811914 max: 0.857037
Interface Courant Number mean: 0.00819545 max: 0.857037
deltaT = 0.00158401
Time = 0.148416

smoothSolver:  Solving for alpha.water, Initial residual = 0.00379766, Final residual = 1.12489e-09, No Iterations 3
Phase-1 volume fraction = 0.130194  Min(alpha.water) = -9.60154e-17  Max(alpha.water) = 1
MULES: Correcting alpha.water
MULES: Correcting alpha.water
Phase-1 volume fraction = 0.130194  Min(alpha.water) = -1.1707e-09  Max(alpha.water) = 1
DICPCG:  Solving for p_rgh, Initial residual = 0.0193086, Final residual = 0.000530212, No Iterations 1
time step continuity errors : sum local = 0.000286696, global = -1.95527e-08, cumulative = 0.000382796
DICPCG:  Solving for p_rgh, Initial residual = 0.000631993, Final residual = 2.97127e-05, No Iterations 10
time step continuity errors : sum local = 1.58339e-05, global = 1.64341e-07, cumulative = 0.00038296
DICPCG:  Solving for p_rgh, Initial residual = 9.73036e-05, Final residual = 7.63356e-08, No Iterations 48
time step continuity errors : sum local = 4.11061e-08, global = -2.26005e-09, cumulative = 0.000382958
ExecutionTime = 0.71 s  ClockTime = 1 s

Courant Number mean: 0.0814503 max: 0.844064
Interface Courant Number mean: 0.00859544 max: 0.844064
deltaT = 0.00158401
Time = 0.15

smoothSolver:  Solving for alpha.water, Initial residual = 0.00384332, Final residual = 1.13543e-09, No Iterations 3
Phase-1 volume fraction = 0.130194  Min(alpha.water) = -8.36199e-17  Max(alpha.water) = 1
MULES: Correcting alpha.water
MULES: Correcting alpha.water
Phase-1 volume fraction = 0.130194  Min(alpha.water) = -6.62097e-10  Max(alpha.water) = 1
DICPCG:  Solving for p_rgh, Initial residual = 0.0178999, Final residual = 0.000549801, No Iterations 1
time step continuity errors : sum local = 0.000297075, global = -5.71884e-09, cumulative = 0.000382952
DICPCG:  Solving for p_rgh, Initial residual = 0.000644466, Final residual = 3.131e-05, No Iterations 9
time step continuity errors : sum local = 1.67008e-05, global = 6.22712e-08, cumulative = 0.000383015
DICPCG:  Solving for p_rgh, Initial residual = 9.92356e-05, Final residual = 8.18704e-08, No Iterations 44
time step continuity errors : sum local = 4.4011e-08, global = 3.91758e-09, cumulative = 0.000383019
ExecutionTime = 0.72 s  ClockTime = 1 s

Courant Number mean: 0.0816694 max: 0.831267
Interface Courant Number mean: 0.00883027 max: 0.831267
deltaT = 0.00172414
Time = 0.151724

smoothSolver:  Solving for alpha.water, Initial residual = 0.00428325, Final residual = 1.93355e-09, No Iterations 3
Phase-1 volume fraction = 0.130194  Min(alpha.water) = -7.48083e-17  Max(alpha.water) = 1
MULES: Correcting alpha.water
MULES: Correcting alpha.water
Phase-1 volume fraction = 0.130194  Min(alpha.water) = -8.21641e-10  Max(alpha.water) = 1
DICPCG:  Solving for p_rgh, Initial residual = 0.0194542, Final residual = 0.000598924, No Iterations 1
time step continuity errors : sum local = 0.000384334, global = 1.07317e-08, cumulative = 0.000383029
DICPCG:  Solving for p_rgh, Initial residual = 0.000696512, Final residual = 3.15686e-05, No Iterations 9
time step continuity errors : sum local = 1.99675e-05, global = 6.57314e-08, cumulative = 0.000383095
DICPCG:  Solving for p_rgh, Initial residual = 0.000116542, Final residual = 7.4029e-08, No Iterations 48
time step continuity errors : sum local = 4.71499e-08, global = -8.86223e-11, cumulative = 0.000383095
ExecutionTime = 0.74 s  ClockTime = 1 s

Courant Number mean: 0.0891896 max: 0.914073
Interface Courant Number mean: 0.0098804 max: 0.914073
deltaT = 0.00185676
Time = 0.153581

smoothSolver:  Solving for alpha.water, Initial residual = 0.00467018, Final residual = 3.05323e-09, No Iterations 3
Phase-1 volume fraction = 0.130194  Min(alpha.water) = -6.20364e-17  Max(alpha.water) = 1
MULES: Correcting alpha.water
MULES: Correcting alpha.water
Phase-1 volume fraction = 0.130194  Min(alpha.water) = -1.58963e-06  Max(alpha.water) = 1
DICPCG:  Solving for p_rgh, Initial residual = 0.0183429, Final residual = 0.00064993, No Iterations 1
time step continuity errors : sum local = 0.000478779, global = -9.95795e-09, cumulative = 0.000383085
DICPCG:  Solving for p_rgh, Initial residual = 0.000754795, Final residual = 3.14682e-05, No Iterations 8
time step continuity errors : sum local = 2.2887e-05, global = -8.77228e-09, cumulative = 0.000383076
DICPCG:  Solving for p_rgh, Initial residual = 0.000127852, Final residual = 7.76668e-08, No Iterations 36
time step continuity errors : sum local = 5.67518e-08, global = -1.02767e-08, cumulative = 0.000383066
ExecutionTime = 0.75 s  ClockTime = 1 s

Courant Number mean: 0.0964924 max: 0.976771
Interface Courant Number mean: 0.0107651 max: 0.976771
deltaT = 0.00185676
Time = 0.155438

smoothSolver:  Solving for alpha.water, Initial residual = 0.00472532, Final residual = 3.08989e-09, No Iterations 3
Phase-1 volume fraction = 0.130194  Min(alpha.water) = -5.54447e-17  Max(alpha.water) = 1
MULES: Correcting alpha.water
MULES: Correcting alpha.water
Phase-1 volume fraction = 0.130194  Min(alpha.water) = -2.38079e-06  Max(alpha.water) = 1
DICPCG:  Solving for p_rgh, Initial residual = 0.018204, Final residual = 0.000601405, No Iterations 1
time step continuity errors : sum local = 0.000448372, global = -2.10685e-08, cumulative = 0.000383045
DICPCG:  Solving for p_rgh, Initial residual = 0.000711075, Final residual = 2.93928e-05, No Iterations 8
time step continuity errors : sum local = 2.16288e-05, global = -5.40129e-08, cumulative = 0.000382991
DICPCG:  Solving for p_rgh, Initial residual = 0.000121846, Final residual = 9.79128e-08, No Iterations 48
time step continuity errors : sum local = 7.23438e-08, global = -5.18682e-09, cumulative = 0.000382986
ExecutionTime = 0.77 s  ClockTime = 1 s

Courant Number mean: 0.0968893 max: 0.953045
Interface Courant Number mean: 0.0106741 max: 0.953045
deltaT = 0.00193749
Time = 0.157375

smoothSolver:  Solving for alpha.water, Initial residual = 0.0050455, Final residual = 3.96291e-09, No Iterations 3
Phase-1 volume fraction = 0.130194  Min(alpha.water) = -5.2867e-17  Max(alpha.water) = 1
MULES: Correcting alpha.water
MULES: Correcting alpha.water
Phase-1 volume fraction = 0.130194  Min(alpha.water) = -9.50445e-07  Max(alpha.water) = 1
DICPCG:  Solving for p_rgh, Initial residual = 0.018743, Final residual = 0.000648295, No Iterations 1
time step continuity errors : sum local = 0.000531163, global = 1.18519e-09, cumulative = 0.000382987
DICPCG:  Solving for p_rgh, Initial residual = 0.000754553, Final residual = 3.49937e-05, No Iterations 8
time step continuity errors : sum local = 2.83537e-05, global = -4.29423e-09, cumulative = 0.000382983
DICPCG:  Solving for p_rgh, Initial residual = 0.000131689, Final residual = 9.6324e-08, No Iterations 49
time step continuity errors : sum local = 7.84348e-08, global = -5.24693e-09, cumulative = 0.000382977
ExecutionTime = 0.77 s  ClockTime = 1 s

Courant Number mean: 0.101411 max: 0.962829
Interface Courant Number mean: 0.0115893 max: 0.962829
deltaT = 0.00193749
Time = 0.159313

smoothSolver:  Solving for alpha.water, Initial residual = 0.00511516, Final residual = 3.94728e-09, No Iterations 3
Phase-1 volume fraction = 0.130194  Min(alpha.water) = -4.93884e-17  Max(alpha.water) = 1
MULES: Correcting alpha.water
MULES: Correcting alpha.water
Phase-1 volume fraction = 0.130194  Min(alpha.water) = -2.0198e-06  Max(alpha.water) = 1
DICPCG:  Solving for p_rgh, Initial residual = 0.0215582, Final residual = 0.000597268, No Iterations 1
time step continuity errors : sum local = 0.000513803, global = 1.59381e-09, cumulative = 0.000382979
DICPCG:  Solving for p_rgh, Initial residual = 0.000691366, Final residual = 3.07395e-05, No Iterations 11
time step continuity errors : sum local = 2.60763e-05, global = 3.07775e-07, cumulative = 0.000383287
DICPCG:  Solving for p_rgh, Initial residual = 0.000122046, Final residual = 6.03667e-08, No Iterations 50
time step continuity errors : sum local = 5.15724e-08, global = -2.40406e-09, cumulative = 0.000383284
ExecutionTime = 0.8 s  ClockTime = 1 s

Courant Number mean: 0.10149 max: 0.933831
Interface Courant Number mean: 0.0121613 max: 0.933831
deltaT = 0.00203437
Time = 0.161347

smoothSolver:  Solving for alpha.water, Initial residual = 0.00541583, Final residual = 5.1592e-09, No Iterations 3
Phase-1 volume fraction = 0.130194  Min(alpha.water) = -4.47318e-17  Max(alpha.water) = 1
MULES: Correcting alpha.water
MULES: Correcting alpha.water
Phase-1 volume fraction = 0.130194  Min(alpha.water) = -4.79768e-06  Max(alpha.water) = 1
DICPCG:  Solving for p_rgh, Initial residual = 0.0222206, Final residual = 0.00057592, No Iterations 1
time step continuity errors : sum local = 0.000545287, global = -1.32788e-09, cumulative = 0.000383283
DICPCG:  Solving for p_rgh, Initial residual = 0.000691067, Final residual = 3.30858e-05, No Iterations 8
time step continuity errors : sum local = 3.08197e-05, global = -1.05623e-08, cumulative = 0.000383272
DICPCG:  Solving for p_rgh, Initial residual = 0.000132358, Final residual = 7.4033e-08, No Iterations 50
time step continuity errors : sum local = 6.93539e-08, global = -2.66591e-09, cumulative = 0.00038327
ExecutionTime = 0.8 s  ClockTime = 1 s

Courant Number mean: 0.106798 max: 0.959368
Interface Courant Number mean: 0.0121313 max: 0.959368
deltaT = 0.00203437
Time = 0.163381

smoothSolver:  Solving for alpha.water, Initial residual = 0.00544423, Final residual = 5.09119e-09, No Iterations 3
Phase-1 volume fraction = 0.130194  Min(alpha.water) = -3.9643e-17  Max(alpha.water) = 1
MULES: Correcting alpha.water
MULES: Correcting alpha.water
Phase-1 volume fraction = 0.130194  Min(alpha.water) = -1.27436e-06  Max(alpha.water) = 1
DICPCG:  Solving for p_rgh, Initial residual = 0.0201127, Final residual = 0.000536852, No Iterations 1
time step continuity errors : sum local = 0.000500443, global = 8.79043e-09, cumulative = 0.000383279
DICPCG:  Solving for p_rgh, Initial residual = 0.000644954, Final residual = 3.21961e-05, No Iterations 7
[...]
time step continuity errors : sum local = 1.95737e-05, global = -1.45222e-06, cumulative = 0.00282517
DICPCG:  Solving for p_rgh, Initial residual = 0.000134056, Final residual = 7.30356e-08, No Iterations 50
time step continuity errors : sum local = 4.42346e-08, global = -4.77597e-09, cumulative = 0.00282516
ExecutionTime = 6.51 s  ClockTime = 7 s

Courant Number mean: 0.150486 max: 0.749111
Interface Courant Number mean: 0.0333384 max: 0.576772
deltaT = 0.00238095
Time = 0.952381

smoothSolver:  Solving for alpha.water, Initial residual = 0.00672884, Final residual = 5.03907e-09, No Iterations 3
Phase-1 volume fraction = 0.127484  Min(alpha.water) = -1.04109e-18  Max(alpha.water) = 1
MULES: Correcting alpha.water
MULES: Correcting alpha.water
Phase-1 volume fraction = 0.127484  Min(alpha.water) = -2.20086e-06  Max(alpha.water) = 1
DICPCG:  Solving for p_rgh, Initial residual = 0.0279651, Final residual = 0.000526042, No Iterations 2
time step continuity errors : sum local = 0.000404524, global = 2.54747e-08, cumulative = 0.00282519
DICPCG:  Solving for p_rgh, Initial residual = 0.000755146, Final residual = 3.59638e-05, No Iterations 22
time step continuity errors : sum local = 2.73143e-05, global = -5.58687e-06, cumulative = 0.0028196
DICPCG:  Solving for p_rgh, Initial residual = 0.000160581, Final residual = 7.48358e-08, No Iterations 50
time step continuity errors : sum local = 5.7302e-08, global = -3.52098e-09, cumulative = 0.0028196
ExecutionTime = 6.52 s  ClockTime = 7 s

Courant Number mean: 0.170109 max: 0.815016
Interface Courant Number mean: 0.0371643 max: 0.620486
deltaT = 0.0026455
Time = 0.955026

smoothSolver:  Solving for alpha.water, Initial residual = 0.00745528, Final residual = 9.86573e-09, No Iterations 3
Phase-1 volume fraction = 0.127484  Min(alpha.water) = -1.01234e-18  Max(alpha.water) = 1
MULES: Correcting alpha.water
MULES: Correcting alpha.water
Phase-1 volume fraction = 0.127484  Min(alpha.water) = -4.28086e-07  Max(alpha.water) = 1
DICPCG:  Solving for p_rgh, Initial residual = 0.0296622, Final residual = 0.000581246, No Iterations 2
time step continuity errors : sum local = 0.000542953, global = 1.6335e-07, cumulative = 0.00281976
DICPCG:  Solving for p_rgh, Initial residual = 0.000815716, Final residual = 3.96846e-05, No Iterations 9
time step continuity errors : sum local = 3.65812e-05, global = 9.38114e-08, cumulative = 0.00281985
DICPCG:  Solving for p_rgh, Initial residual = 0.000178538, Final residual = 9.00469e-08, No Iterations 52
time step continuity errors : sum local = 8.34288e-08, global = -8.85778e-09, cumulative = 0.00281984
ExecutionTime = 6.54 s  ClockTime = 7 s

Courant Number mean: 0.189998 max: 0.869877
Interface Courant Number mean: 0.0413566 max: 0.69404
deltaT = 0.00281085
Time = 0.957837

smoothSolver:  Solving for alpha.water, Initial residual = 0.0079204, Final residual = 3.3176e-10, No Iterations 4
Phase-1 volume fraction = 0.127484  Min(alpha.water) = -9.82704e-19  Max(alpha.water) = 1
MULES: Correcting alpha.water
MULES: Correcting alpha.water
Phase-1 volume fraction = 0.127484  Min(alpha.water) = -9.82704e-19  Max(alpha.water) = 1
DICPCG:  Solving for p_rgh, Initial residual = 0.0298553, Final residual = 0.000637766, No Iterations 2
time step continuity errors : sum local = 0.000663447, global = -8.34636e-09, cumulative = 0.00281984
DICPCG:  Solving for p_rgh, Initial residual = 0.00087993, Final residual = 3.76847e-05, No Iterations 9
time step continuity errors : sum local = 3.86918e-05, global = -8.32013e-07, cumulative = 0.002819
DICPCG:  Solving for p_rgh, Initial residual = 0.000195109, Final residual = 9.31563e-08, No Iterations 52
time step continuity errors : sum local = 9.6023e-08, global = -9.18469e-09, cumulative = 0.00281899
ExecutionTime = 6.55 s  ClockTime = 7 s

Courant Number mean: 0.203058 max: 0.897411
Interface Courant Number mean: 0.0447012 max: 0.761588
deltaT = 0.00301162
Time = 0.960849

smoothSolver:  Solving for alpha.water, Initial residual = 0.00856407, Final residual = 6.07096e-10, No Iterations 4
Phase-1 volume fraction = 0.127484  Min(alpha.water) = -9.51969e-19  Max(alpha.water) = 1
MULES: Correcting alpha.water
MULES: Correcting alpha.water
Phase-1 volume fraction = 0.127484  Min(alpha.water) = -1.3879e-06  Max(alpha.water) = 1
DICPCG:  Solving for p_rgh, Initial residual = 0.0295063, Final residual = 0.000596876, No Iterations 2
time step continuity errors : sum local = 0.000711583, global = 1.01477e-08, cumulative = 0.002819
DICPCG:  Solving for p_rgh, Initial residual = 0.000829188, Final residual = 3.9711e-05, No Iterations 17
time step continuity errors : sum local = 4.67151e-05, global = -6.92385e-06, cumulative = 0.00281208
DICPCG:  Solving for p_rgh, Initial residual = 0.000193705, Final residual = 7.01847e-08, No Iterations 51
time step continuity errors : sum local = 8.31947e-08, global = 1.48674e-10, cumulative = 0.00281208
ExecutionTime = 6.55 s  ClockTime = 7 s

Courant Number mean: 0.218754 max: 0.932472
Interface Courant Number mean: 0.0476672 max: 0.835033
deltaT = 0.00301162
Time = 0.963861

smoothSolver:  Solving for alpha.water, Initial residual = 0.00856888, Final residual = 6.81993e-10, No Iterations 4
Phase-1 volume fraction = 0.127484  Min(alpha.water) = -9.22227e-19  Max(alpha.water) = 1
MULES: Correcting alpha.water
MULES: Correcting alpha.water
Phase-1 volume fraction = 0.127484  Min(alpha.water) = -4.00585e-06  Max(alpha.water) = 1
DICPCG:  Solving for p_rgh, Initial residual = 0.0287751, Final residual = 0.000631266, No Iterations 2
time step continuity errors : sum local = 0.000752261, global = 1.30961e-07, cumulative = 0.00281221
DICPCG:  Solving for p_rgh, Initial residual = 0.000858155, Final residual = 3.58017e-05, No Iterations 17
time step continuity errors : sum local = 4.21214e-05, global = -4.92103e-06, cumulative = 0.00280729
DICPCG:  Solving for p_rgh, Initial residual = 0.000196089, Final residual = 6.94379e-08, No Iterations 51
time step continuity errors : sum local = 8.22781e-08, global = -1.10245e-09, cumulative = 0.00280729
ExecutionTime = 6.57 s  ClockTime = 7 s

Courant Number mean: 0.220091 max: 0.927852
Interface Courant Number mean: 0.0477165 max: 0.768992
deltaT = 0.00301162
Time = 0.966872

smoothSolver:  Solving for alpha.water, Initial residual = 0.00848331, Final residual = 7.93575e-10, No Iterations 4
Phase-1 volume fraction = 0.127484  Min(alpha.water) = -8.93456e-19  Max(alpha.water) = 1
MULES: Correcting alpha.water
MULES: Correcting alpha.water
Phase-1 volume fraction = 0.127484  Min(alpha.water) = -3.3965e-06  Max(alpha.water) = 1
DICPCG:  Solving for p_rgh, Initial residual = 0.0282532, Final residual = 0.000619571, No Iterations 2
time step continuity errors : sum local = 0.000731517, global = 4.57045e-08, cumulative = 0.00280734
DICPCG:  Solving for p_rgh, Initial residual = 0.000841056, Final residual = 3.3965e-05, No Iterations 17
time step continuity errors : sum local = 3.96241e-05, global = -2.91e-06, cumulative = 0.00280443
DICPCG:  Solving for p_rgh, Initial residual = 0.000189842, Final residual = 7.20218e-08, No Iterations 42
time step continuity errors : sum local = 8.46387e-08, global = 1.12755e-08, cumulative = 0.00280444
ExecutionTime = 6.58 s  ClockTime = 7 s

Courant Number mean: 0.221324 max: 0.937029
Interface Courant Number mean: 0.0484322 max: 0.797821
deltaT = 0.00301162
Time = 0.969884

smoothSolver:  Solving for alpha.water, Initial residual = 0.00847192, Final residual = 9.01215e-10, No Iterations 4
Phase-1 volume fraction = 0.127484  Min(alpha.water) = -8.65642e-19  Max(alpha.water) = 1
MULES: Correcting alpha.water
MULES: Correcting alpha.water
Phase-1 volume fraction = 0.127484  Min(alpha.water) = -2.93551e-06  Max(alpha.water) = 1
DICPCG:  Solving for p_rgh, Initial residual = 0.0253947, Final residual = 0.000617105, No Iterations 2
time step continuity errors : sum local = 0.000720738, global = -3.13615e-08, cumulative = 0.00280441
DICPCG:  Solving for p_rgh, Initial residual = 0.00085081, Final residual = 3.79623e-05, No Iterations 17
time step continuity errors : sum local = 4.38353e-05, global = -2.49553e-06, cumulative = 0.00280191
DICPCG:  Solving for p_rgh, Initial residual = 0.000192635, Final residual = 6.24205e-08, No Iterations 51
time step continuity errors : sum local = 7.24841e-08, global = 2.26937e-10, cumulative = 0.00280191
ExecutionTime = 6.6 s  ClockTime = 7 s

Courant Number mean: 0.222567 max: 0.935778
Interface Courant Number mean: 0.0484886 max: 0.816531
deltaT = 0.00301162
Time = 0.972895

smoothSolver:  Solving for alpha.water, Initial residual = 0.00848319, Final residual = 1.00347e-09, No Iterations 4
Phase-1 volume fraction = 0.127484  Min(alpha.water) = -8.38733e-19  Max(alpha.water) = 1
MULES: Correcting alpha.water
MULES: Correcting alpha.water
Phase-1 volume fraction = 0.127484  Min(alpha.water) = -9.81931e-07  Max(alpha.water) = 1
DICPCG:  Solving for p_rgh, Initial residual = 0.026364, Final residual = 0.000700982, No Iterations 2
time step continuity errors : sum local = 0.000815489, global = -1.77174e-07, cumulative = 0.00280173
DICPCG:  Solving for p_rgh, Initial residual = 0.00093515, Final residual = 4.63992e-05, No Iterations 17
time step continuity errors : sum local = 5.3295e-05, global = -3.71838e-06, cumulative = 0.00279801
DICPCG:  Solving for p_rgh, Initial residual = 0.000212898, Final residual = 8.44734e-08, No Iterations 51
time step continuity errors : sum local = 9.78189e-08, global = -7.67395e-10, cumulative = 0.00279801
ExecutionTime = 6.62 s  ClockTime = 7 s

Courant Number mean: 0.223831 max: 0.927961
Interface Courant Number mean: 0.0487791 max: 0.756938
deltaT = 0.00301162
Time = 0.975907

smoothSolver:  Solving for alpha.water, Initial residual = 0.00842165, Final residual = 1.10638e-09, No Iterations 4
Phase-1 volume fraction = 0.127484  Min(alpha.water) = -8.12725e-19  Max(alpha.water) = 1
MULES: Correcting alpha.water
MULES: Correcting alpha.water
Phase-1 volume fraction = 0.127484  Min(alpha.water) = -4.51997e-07  Max(alpha.water) = 1
DICPCG:  Solving for p_rgh, Initial residual = 0.0260003, Final residual = 0.00063484, No Iterations 2
time step continuity errors : sum local = 0.000731036, global = -1.88366e-07, cumulative = 0.00279783
DICPCG:  Solving for p_rgh, Initial residual = 0.000863729, Final residual = 3.88309e-05, No Iterations 18
time step continuity errors : sum local = 4.42585e-05, global = -4.21996e-06, cumulative = 0.00279361
DICPCG:  Solving for p_rgh, Initial residual = 0.000192133, Final residual = 7.35085e-08, No Iterations 51
time step continuity errors : sum local = 8.43775e-08, global = -4.54642e-09, cumulative = 0.0027936
ExecutionTime = 6.62 s  ClockTime = 7 s

Courant Number mean: 0.225079 max: 0.932396
Interface Courant Number mean: 0.0486542 max: 0.780692
deltaT = 0.00301162
Time = 0.978919

smoothSolver:  Solving for alpha.water, Initial residual = 0.00840213, Final residual = 1.18478e-09, No Iterations 4
Phase-1 volume fraction = 0.127484  Min(alpha.water) = -7.87549e-19  Max(alpha.water) = 1
MULES: Correcting alpha.water
MULES: Correcting alpha.water
Phase-1 volume fraction = 0.127484  Min(alpha.water) = -4.99926e-07  Max(alpha.water) = 1
DICPCG:  Solving for p_rgh, Initial residual = 0.0251004, Final residual = 0.000611815, No Iterations 2
time step continuity errors : sum local = 0.000707767, global = -3.3684e-07, cumulative = 0.00279326
DICPCG:  Solving for p_rgh, Initial residual = 0.000847892, Final residual = 3.24407e-05, No Iterations 18
time step continuity errors : sum local = 3.71025e-05, global = -5.12175e-06, cumulative = 0.00278814
DICPCG:  Solving for p_rgh, Initial residual = 0.000180201, Final residual = 6.85318e-08, No Iterations 51
time step continuity errors : sum local = 7.90532e-08, global = -2.89944e-09, cumulative = 0.00278814
ExecutionTime = 6.63 s  ClockTime = 7 s

Courant Number mean: 0.226149 max: 0.93016
Interface Courant Number mean: 0.0497661 max: 0.797694
deltaT = 0.00301162
Time = 0.98193

smoothSolver:  Solving for alpha.water, Initial residual = 0.00829806, Final residual = 1.23606e-09, No Iterations 4
Phase-1 volume fraction = 0.127484  Min(alpha.water) = -7.63163e-19  Max(alpha.water) = 1
MULES: Correcting alpha.water
MULES: Correcting alpha.water
Phase-1 volume fraction = 0.127484  Min(alpha.water) = -5.56076e-06  Max(alpha.water) = 1
DICPCG:  Solving for p_rgh, Initial residual = 0.0252888, Final residual = 0.000736125, No Iterations 2
time step continuity errors : sum local = 0.000851285, global = -4.72434e-07, cumulative = 0.00278767
DICPCG:  Solving for p_rgh, Initial residual = 0.00099335, Final residual = 3.95435e-05, No Iterations 18
time step continuity errors : sum local = 4.5235e-05, global = -5.68389e-06, cumulative = 0.00278198
DICPCG:  Solving for p_rgh, Initial residual = 0.000220723, Final residual = 8.83933e-08, No Iterations 42
time step continuity errors : sum local = 1.0194e-07, global = -2.43975e-08, cumulative = 0.00278196
ExecutionTime = 6.65 s  ClockTime = 7 s

Courant Number mean: 0.227104 max: 0.921211
Interface Courant Number mean: 0.0503931 max: 0.74116
deltaT = 0.00301162
Time = 0.984942

smoothSolver:  Solving for alpha.water, Initial residual = 0.00818933, Final residual = 1.28748e-09, No Iterations 4
Phase-1 volume fraction = 0.127484  Min(alpha.water) = -7.3954e-19  Max(alpha.water) = 1
MULES: Correcting alpha.water
MULES: Correcting alpha.water
Phase-1 volume fraction = 0.127484  Min(alpha.water) = -3.54887e-07  Max(alpha.water) = 1
DICPCG:  Solving for p_rgh, Initial residual = 0.0244516, Final residual = 0.000689651, No Iterations 2
time step continuity errors : sum local = 0.000780009, global = -5.62127e-07, cumulative = 0.0027814
DICPCG:  Solving for p_rgh, Initial residual = 0.000944049, Final residual = 4.48316e-05, No Iterations 18
time step continuity errors : sum local = 5.01596e-05, global = -4.20752e-06, cumulative = 0.00277719
DICPCG:  Solving for p_rgh, Initial residual = 0.000213228, Final residual = 8.8541e-08, No Iterations 52
time step continuity errors : sum local = 1.00057e-07, global = -1.25947e-08, cumulative = 0.00277718
ExecutionTime = 6.66 s  ClockTime = 7 s

Courant Number mean: 0.227948 max: 0.927583
Interface Courant Number mean: 0.0509738 max: 0.759416
deltaT = 0.00301162
Time = 0.987954

smoothSolver:  Solving for alpha.water, Initial residual = 0.00805186, Final residual = 1.30755e-09, No Iterations 4
Phase-1 volume fraction = 0.127484  Min(alpha.water) = -7.16625e-19  Max(alpha.water) = 1
MULES: Correcting alpha.water
MULES: Correcting alpha.water
Phase-1 volume fraction = 0.127484  Min(alpha.water) = -3.76146e-07  Max(alpha.water) = 1
DICPCG:  Solving for p_rgh, Initial residual = 0.0240825, Final residual = 0.000687282, No Iterations 2
time step continuity errors : sum local = 0.00077384, global = -8.24878e-07, cumulative = 0.00277635
DICPCG:  Solving for p_rgh, Initial residual = 0.000944667, Final residual = 4.21553e-05, No Iterations 18
time step continuity errors : sum local = 4.69621e-05, global = -2.13857e-06, cumulative = 0.00277421
DICPCG:  Solving for p_rgh, Initial residual = 0.000201, Final residual = 9.61254e-08, No Iterations 41
time step continuity errors : sum local = 1.07914e-07, global = -2.99141e-08, cumulative = 0.00277418
ExecutionTime = 6.66 s  ClockTime = 7 s

Courant Number mean: 0.228751 max: 0.94549
Interface Courant Number mean: 0.0511077 max: 0.77197
deltaT = 0.00301162
Time = 0.990965

smoothSolver:  Solving for alpha.water, Initial residual = 0.00799634, Final residual = 1.3028e-09, No Iterations 4
Phase-1 volume fraction = 0.127484  Min(alpha.water) = -6.94352e-19  Max(alpha.water) = 1
MULES: Correcting alpha.water
MULES: Correcting alpha.water
Phase-1 volume fraction = 0.127484  Min(alpha.water) = -1.70659e-06  Max(alpha.water) = 1
DICPCG:  Solving for p_rgh, Initial residual = 0.0283535, Final residual = 0.000823284, No Iterations 2
time step continuity errors : sum local = 0.000931842, global = -1.14452e-06, cumulative = 0.00277304
DICPCG:  Solving for p_rgh, Initial residual = 0.00110106, Final residual = 4.48198e-05, No Iterations 19
time step continuity errors : sum local = 5.0045e-05, global = -6.04615e-06, cumulative = 0.00276699
DICPCG:  Solving for p_rgh, Initial residual = 0.000243576, Final residual = 9.50733e-08, No Iterations 43
time step continuity errors : sum local = 1.06781e-07, global = -1.32154e-08, cumulative = 0.00276698
ExecutionTime = 6.68 s  ClockTime = 7 s

Courant Number mean: 0.229333 max: 0.958646
Interface Courant Number mean: 0.0511348 max: 0.775055
deltaT = 0.00301162
Time = 0.993977

smoothSolver:  Solving for alpha.water, Initial residual = 0.00813245, Final residual = 1.27491e-09, No Iterations 4
Phase-1 volume fraction = 0.127484  Min(alpha.water) = -6.72707e-19  Max(alpha.water) = 1
MULES: Correcting alpha.water
MULES: Correcting alpha.water
Phase-1 volume fraction = 0.127484  Min(alpha.water) = -7.78163e-08  Max(alpha.water) = 1
DICPCG:  Solving for p_rgh, Initial residual = 0.0289278, Final residual = 0.000718592, No Iterations 2
time step continuity errors : sum local = 0.000810011, global = -1.10657e-06, cumulative = 0.00276587
DICPCG:  Solving for p_rgh, Initial residual = 0.000992444, Final residual = 4.36882e-05, No Iterations 19
time step continuity errors : sum local = 4.8539e-05, global = -6.48496e-06, cumulative = 0.00275939
DICPCG:  Solving for p_rgh, Initial residual = 0.000221133, Final residual = 6.2204e-08, No Iterations 52
time step continuity errors : sum local = 6.94661e-08, global = -3.8569e-09, cumulative = 0.00275938
ExecutionTime = 6.69 s  ClockTime = 7 s

Courant Number mean: 0.229715 max: 0.967002
Interface Courant Number mean: 0.0513847 max: 0.736198
deltaT = 0.00301162
Time = 0.996988

smoothSolver:  Solving for alpha.water, Initial residual = 0.00813809, Final residual = 1.24593e-09, No Iterations 4
Phase-1 volume fraction = 0.127484  Min(alpha.water) = -6.51624e-19  Max(alpha.water) = 1
MULES: Correcting alpha.water
MULES: Correcting alpha.water
Phase-1 volume fraction = 0.127484  Min(alpha.water) = -9.47204e-08  Max(alpha.water) = 1
DICPCG:  Solving for p_rgh, Initial residual = 0.0263794, Final residual = 0.000699229, No Iterations 2
time step continuity errors : sum local = 0.00077747, global = -1.42846e-06, cumulative = 0.00275796
DICPCG:  Solving for p_rgh, Initial residual = 0.000957652, Final residual = 4.66203e-05, No Iterations 17
time step continuity errors : sum local = 5.1194e-05, global = 1.01949e-07, cumulative = 0.00275806
DICPCG:  Solving for p_rgh, Initial residual = 0.000207589, Final residual = 9.4567e-08, No Iterations 40
time step continuity errors : sum local = 1.04381e-07, global = 2.65941e-08, cumulative = 0.00275808
ExecutionTime = 6.71 s  ClockTime = 7 s

Courant Number mean: 0.230001 max: 0.97107
Interface Courant Number mean: 0.0507763 max: 0.779646
deltaT = 0.00301162
Time = 1

smoothSolver:  Solving for alpha.water, Initial residual = 0.00808018, Final residual = 1.19776e-09, No Iterations 4
Phase-1 volume fraction = 0.127484  Min(alpha.water) = -6.31054e-19  Max(alpha.water) = 1
MULES: Correcting alpha.water
MULES: Correcting alpha.water
Phase-1 volume fraction = 0.127484  Min(alpha.water) = -2.25739e-07  Max(alpha.water) = 1
DICPCG:  Solving for p_rgh, Initial residual = 0.0266251, Final residual = 0.000899074, No Iterations 2
time step continuity errors : sum local = 0.00101181, global = -1.73114e-06, cumulative = 0.00275635
DICPCG:  Solving for p_rgh, Initial residual = 0.00118068, Final residual = 5.87625e-05, No Iterations 8
time step continuity errors : sum local = 6.53808e-05, global = 1.82196e-06, cumulative = 0.00275817
DICPCG:  Solving for p_rgh, Initial residual = 0.000260777, Final residual = 6.58768e-08, No Iterations 52
time step continuity errors : sum local = 7.35974e-08, global = -6.63074e-09, cumulative = 0.00275817
ExecutionTime = 6.73 s  ClockTime = 7 s

End

