/*---------------------------------------------------------------------------*\
  =========                 |
  \\      /  F ield         | OpenFOAM: The Open Source CFD Toolbox
   \\    /   O peration     | Website:  https://openfoam.org
    \\  /    A nd           | Version:  7
     \\/     M anipulation  |
\*---------------------------------------------------------------------------*/
Build  : 7-1ff648926f77
Exec   : dsmcFoam
Date   : Jun 26 2020
Time   : 21:30:34
Host   : "DESKTOP-KF81SG4"
PID    : 31209
I/O    : uncollated
Case   : /home/anthonygay1812/OpenFOAM/tutorials/tutorials/discreteMethods/dsmcFoam/freeSpaceStream
nProcs : 1
sigFpe : Enabling floating point exception trapping (FOAM_SIGFPE).
fileModificationChecking : Monitoring run-time modified files using timeStampMaster (fileModificationSkew 10)
allowSystemOperations : Allowing user-supplied system call operations

// * * * * * * * * * * * * * * * * * * * * * * * * * * * * * * * * * * * * * //
Create time

Create mesh for time = 0


Constructing dsmcCloud 
Selecting BinaryCollisionModel LarsenBorgnakkeVariableHardSphere
Selecting WallInteractionModel MaxwellianThermal
Selecting InflowBoundaryModel FreeStream

Constructing constant properties for
    N2
    O2

Starting time loop

fieldAverage fieldAverage1:
    Starting averaging at time 0

Time = 1e-06

--> FOAM Warning : 
    From function void Foam::particle::locate(const vector&, Foam::label, bool, Foam::string)
    in file particle/particle.C at line 495
    Particle initialised with a location outside of the mesh.
--> FOAM Warning : 
    From function void Foam::particle::locate(const vector&, Foam::label, bool, Foam::string)
    in file particle/particle.C at line 495
    Particle initialised with a location outside of the mesh.
--> FOAM Warning : 
    From function void Foam::particle::locate(const vector&, Foam::label, bool, Foam::string)
    in file particle/particle.C at line 495
    Particle initialised with a location outside of the mesh.
--> FOAM Warning : 
    From function void Foam::particle::locate(const vector&, Foam::label, bool, Foam::string)
    in file particle/particle.C at line 495
    Particle initialised with a location outside of the mesh.
--> FOAM Warning : 
    From function void Foam::particle::locate(const vector&, Foam::label, bool, Foam::string)
    in file particle/particle.C at line 495
    Particle initialised with a location outside of the mesh.
--> FOAM Warning : 
    From function void Foam::particle::locate(const vector&, Foam::label, bool, Foam::string)
    in file particle/particle.C at line 495
    Particle initialised with a location outside of the mesh.
--> FOAM Warning : 
    From function void Foam::particle::locate(const vector&, Foam::label, bool, Foam::string)
    in file particle/particle.C at line 495
    Particle initialised with a location outside of the mesh.
--> FOAM Warning : 
    From function void Foam::particle::locate(const vector&, Foam::label, bool, Foam::string)
    in file particle/particle.C at line 495
    Particle initialised with a location outside of the mesh.
--> FOAM Warning : 
    From function void Foam::particle::locate(const vector&, Foam::label, bool, Foam::string)
    in file particle/particle.C at line 495
    Particle initialised with a location outside of the mesh.
--> FOAM Warning : 
    From function void Foam::particle::locate(const vector&, Foam::label, bool, Foam::string)
    in file particle/particle.C at line 495
    Particle initialised with a location outside of the mesh.
--> FOAM Warning : 
    From function void Foam::particle::locate(const vector&, Foam::label, bool, Foam::string)
    in file particle/particle.C at line 495
    Particle initialised with a location outside of the mesh.
--> FOAM Warning : 
    From function void Foam::particle::locate(const vector&, Foam::label, bool, Foam::string)
    in file particle/particle.C at line 495
    Particle initialised with a location outside of the mesh.
--> FOAM Warning : 
    From function void Foam::particle::locate(const vector&, Foam::label, bool, Foam::string)
    in file particle/particle.C at line 495
    Particle initialised with a location outside of the mesh.
--> FOAM Warning : 
    From function void Foam::particle::locate(const vector&, Foam::label, bool, Foam::string)
    in file particle/particle.C at line 495
    Particle initialised with a location outside of the mesh.
--> FOAM Warning : 
    From function void Foam::particle::locate(const vector&, Foam::label, bool, Foam::string)
    in file particle/particle.C at line 495
    Particle initialised with a location outside of the mesh.
--> FOAM Warning : 
    From function void Foam::particle::locate(const vector&, Foam::label, bool, Foam::string)
    in file particle/particle.C at line 495
    Particle initialised with a location outside of the mesh.
--> FOAM Warning : 
    From function void Foam::particle::locate(const vector&, Foam::label, bool, Foam::string)
    in file particle/particle.C at line 495
    Particle initialised with a location outside of the mesh.
--> FOAM Warning : 
    From function void Foam::particle::locate(const vector&, Foam::label, bool, Foam::string)
    in file particle/particle.C at line 495
    Particle initialised with a location outside of the mesh.
--> FOAM Warning : 
    From function void Foam::particle::locate(const vector&, Foam::label, bool, Foam::string)
    in file particle/particle.C at line 495
    Particle initialised with a location outside of the mesh.
--> FOAM Warning : 
    From function void Foam::particle::locate(const vector&, Foam::label, bool, Foam::string)
    in file particle/particle.C at line 495
    Particle initialised with a location outside of the mesh.
--> FOAM Warning : 
    From function void Foam::particle::locate(const vector&, Foam::label, bool, Foam::string)
    in file particle/particle.C at line 495
    Particle initialised with a location outside of the mesh.
--> FOAM Warning : 
    From function void Foam::particle::locate(const vector&, Foam::label, bool, Foam::string)
    in file particle/particle.C at line 495
    Particle initialised with a location outside of the mesh.
--> FOAM Warning : 
    From function void Foam::particle::locate(const vector&, Foam::label, bool, Foam::string)
    in file particle/particle.C at line 495
    Particle initialised with a location outside of the mesh.
--> FOAM Warning : 
    From function void Foam::particle::locate(const vector&, Foam::label, bool, Foam::string)
    in file particle/particle.C at line 495
    Particle initialised with a location outside of the mesh.
--> FOAM Warning : 
    From function void Foam::particle::locate(const vector&, Foam::label, bool, Foam::string)
    in file particle/particle.C at line 495
    Particle initialised with a location outside of the mesh.
--> FOAM Warning : 
    From function void Foam::particle::locate(const vector&, Foam::label, bool, Foam::string)
    in file particle/particle.C at line 495
    Particle initialised with a location outside of the mesh.
--> FOAM Warning : 
    From function void Foam::particle::locate(const vector&, Foam::label, bool, Foam::string)
    in file particle/particle.C at line 495
    Particle initialised with a location outside of the mesh.
--> FOAM Warning : 
    From function void Foam::particle::locate(const vector&, Foam::label, bool, Foam::string)
    in file particle/particle.C at line 495
    Particle initialised with a location outside of the mesh.
--> FOAM Warning : 
    From function void Foam::particle::locate(const vector&, Foam::label, bool, Foam::string)
    in file particle/particle.C at line 495
    Particle initialised with a location outside of the mesh.
--> FOAM Warning : 
    From function void Foam::particle::locate(const vector&, Foam::label, bool, Foam::string)
    in file particle/particle.C at line 495
    Particle initialised with a location outside of the mesh.
--> FOAM Warning : 
    From function void Foam::particle::locate(const vector&, Foam::label, bool, Foam::string)
    in file particle/particle.C at line 495
    Particle initialised with a location outside of the mesh.
--> FOAM Warning : 
    From function void Foam::particle::locate(const vector&, Foam::label, bool, Foam::string)
    in file particle/particle.C at line 495
    Particle initialised with a location outside of the mesh.
--> FOAM Warning : 
    From function void Foam::particle::locate(const vector&, Foam::label, bool, Foam::string)
    in file particle/particle.C at line 495
    Particle initialised with a location outside of the mesh.
--> FOAM Warning : 
    From function void Foam::particle::locate(const vector&, Foam::label, bool, Foam::string)
    in file particle/particle.C at line 495
    Particle initialised with a location outside of the mesh.
--> FOAM Warning : 
    From function void Foam::particle::locate(const vector&, Foam::label, bool, Foam::string)
    in file particle/particle.C at line 495
    Particle initialised with a location outside of the mesh.
--> FOAM Warning : 
    From function void Foam::particle::locate(const vector&, Foam::label, bool, Foam::string)
    in file particle/particle.C at line 495
    Particle initialised with a location outside of the mesh.
--> FOAM Warning : 
    From function void Foam::particle::locate(const vector&, Foam::label, bool, Foam::string)
    in file particle/particle.C at line 495
    Particle initialised with a location outside of the mesh.
--> FOAM Warning : 
    From function void Foam::particle::locate(const vector&, Foam::label, bool, Foam::string)
    in file particle/particle.C at line 495
    Particle initialised with a location outside of the mesh.
--> FOAM Warning : 
    From function void Foam::particle::locate(const vector&, Foam::label, bool, Foam::string)
    in file particle/particle.C at line 495
    Particle initialised with a location outside of the mesh.
--> FOAM Warning : 
    From function void Foam::particle::locate(const vector&, Foam::label, bool, Foam::string)
    in file particle/particle.C at line 495
    Particle initialised with a location outside of the mesh.
--> FOAM Warning : 
    From function void Foam::particle::locate(const vector&, Foam::label, bool, Foam::string)
    in file particle/particle.C at line 495
    Particle initialised with a location outside of the mesh.
--> FOAM Warning : 
    From function void Foam::particle::locate(const vector&, Foam::label, bool, Foam::string)
    in file particle/particle.C at line 495
    Particle initialised with a location outside of the mesh.
--> FOAM Warning : 
    From function void Foam::particle::locate(const vector&, Foam::label, bool, Foam::string)
    in file particle/particle.C at line 495
    Particle initialised with a location outside of the mesh.
--> FOAM Warning : 
    From function void Foam::particle::locate(const vector&, Foam::label, bool, Foam::string)
    in file particle/particle.C at line 495
    Particle initialised with a location outside of the mesh.
--> FOAM Warning : 
    From function void Foam::particle::locate(const vector&, Foam::label, bool, Foam::string)
    in file particle/particle.C at line 495
    Particle initialised with a location outside of the mesh.
--> FOAM Warning : 
    From function void Foam::particle::locate(const vector&, Foam::label, bool, Foam::string)
    in file particle/particle.C at line 495
    Particle initialised with a location outside of the mesh.
--> FOAM Warning : 
    From function void Foam::particle::locate(const vector&, Foam::label, bool, Foam::string)
    in file particle/particle.C at line 495
    Particle initialised with a location outside of the mesh.
--> FOAM Warning : 
    From function void Foam::particle::locate(const vector&, Foam::label, bool, Foam::string)
    in file particle/particle.C at line 495
    Particle initialised with a location outside of the mesh.
--> FOAM Warning : 
    From function void Foam::particle::locate(const vector&, Foam::label, bool, Foam::string)
    in file particle/particle.C at line 495
    Particle initialised with a location outside of the mesh.
--> FOAM Warning : 
    From function void Foam::particle::locate(const vector&, Foam::label, bool, Foam::string)
    in file particle/particle.C at line 495
    Particle initialised with a location outside of the mesh.
--> FOAM Warning : 
    From function void Foam::particle::locate(const vector&, Foam::label, bool, Foam::string)
    in file particle/particle.C at line 495
    Particle initialised with a location outside of the mesh.
--> FOAM Warning : 
    From function void Foam::particle::locate(const vector&, Foam::label, bool, Foam::string)
    in file particle/particle.C at line 495
    Particle initialised with a location outside of the mesh.
--> FOAM Warning : 
    From function void Foam::particle::locate(const vector&, Foam::label, bool, Foam::string)
    in file particle/particle.C at line 495
    Particle initialised with a location outside of the mesh.
--> FOAM Warning : 
    From function void Foam::particle::locate(const vector&, Foam::label, bool, Foam::string)
    in file particle/particle.C at line 495
    Particle initialised with a location outside of the mesh.
--> FOAM Warning : 
    From function void Foam::particle::locate(const vector&, Foam::label, bool, Foam::string)
    in file particle/particle.C at line 495
    Particle initialised with a location outside of the mesh.
--> FOAM Warning : 
    From function void Foam::particle::locate(const vector&, Foam::label, bool, Foam::string)
    in file particle/particle.C at line 495
    Particle initialised with a location outside of the mesh.
--> FOAM Warning : 
    From function void Foam::particle::locate(const vector&, Foam::label, bool, Foam::string)
    in file particle/particle.C at line 495
    Particle initialised with a location outside of the mesh.
--> FOAM Warning : 
    From function void Foam::particle::locate(const vector&, Foam::label, bool, Foam::string)
    in file particle/particle.C at line 495
    Particle initialised with a location outside of the mesh.
--> FOAM Warning : 
    From function void Foam::particle::locate(const vector&, Foam::label, bool, Foam::string)
    in file particle/particle.C at line 495
    Particle initialised with a location outside of the mesh.
--> FOAM Warning : 
    From function void Foam::particle::locate(const vector&, Foam::label, bool, Foam::string)
    in file particle/particle.C at line 495
    Particle initialised with a location outside of the mesh.
--> FOAM Warning : 
    From function void Foam::particle::locate(const vector&, Foam::label, bool, Foam::string)
    in file particle/particle.C at line 495
    Particle initialised with a location outside of the mesh.
--> FOAM Warning : 
    From function void Foam::particle::locate(const vector&, Foam::label, bool, Foam::string)
    in file particle/particle.C at line 495
    Particle initialised with a location outside of the mesh.
--> FOAM Warning : 
    From function void Foam::particle::locate(const vector&, Foam::label, bool, Foam::string)
    in file particle/particle.C at line 495
    Particle initialised with a location outside of the mesh.
--> FOAM Warning : 
    From function void Foam::particle::locate(const vector&, Foam::label, bool, Foam::string)
    in file particle/particle.C at line 495
    Particle initialised with a location outside of the mesh.
--> FOAM Warning : 
    From function void Foam::particle::locate(const vector&, Foam::label, bool, Foam::string)
    in file particle/particle.C at line 495
    Particle initialised with a location outside of the mesh.
--> FOAM Warning : 
    From function void Foam::particle::locate(const vector&, Foam::label, bool, Foam::string)
    in file particle/particle.C at line 495
    Particle initialised with a location outside of the mesh.
--> FOAM Warning : 
    From function void Foam::particle::locate(const vector&, Foam::label, bool, Foam::string)
    in file particle/particle.C at line 495
    Particle initialised with a location outside of the mesh.
--> FOAM Warning : 
    From function void Foam::particle::locate(const vector&, Foam::label, bool, Foam::string)
    in file particle/particle.C at line 495
    Particle initialised with a location outside of the mesh.
--> FOAM Warning : 
    From function void Foam::particle::locate(const vector&, Foam::label, bool, Foam::string)
    in file particle/particle.C at line 495
    Particle initialised with a location outside of the mesh.
--> FOAM Warning : 
    From function void Foam::particle::locate(const vector&, Foam::label, bool, Foam::string)
    in file particle/particle.C at line 495
    Particle initialised with a location outside of the mesh.
--> FOAM Warning : 
    From function void Foam::particle::locate(const vector&, Foam::label, bool, Foam::string)
    in file particle/particle.C at line 495
    Particle initialised with a location outside of the mesh.
--> FOAM Warning : 
    From function void Foam::particle::locate(const vector&, Foam::label, bool, Foam::string)
    in file particle/particle.C at line 495
    Particle initialised with a location outside of the mesh.
--> FOAM Warning : 
    From function void Foam::particle::locate(const vector&, Foam::label, bool, Foam::string)
    in file particle/particle.C at line 495
    Particle initialised with a location outside of the mesh.
--> FOAM Warning : 
    From function void Foam::particle::locate(const vector&, Foam::label, bool, Foam::string)
    in file particle/particle.C at line 495
    Particle initialised with a location outside of the mesh.
--> FOAM Warning : 
    From function void Foam::particle::locate(const vector&, Foam::label, bool, Foam::string)
    in file particle/particle.C at line 495
    Particle initialised with a location outside of the mesh.
--> FOAM Warning : 
    From function void Foam::particle::locate(const vector&, Foam::label, bool, Foam::string)
    in file particle/particle.C at line 495
    Particle initialised with a location outside of the mesh.
--> FOAM Warning : 
    From function void Foam::particle::locate(const vector&, Foam::label, bool, Foam::string)
    in file particle/particle.C at line 495
    Particle initialised with a location outside of the mesh.
--> FOAM Warning : 
    From function void Foam::particle::locate(const vector&, Foam::label, bool, Foam::string)
    in file particle/particle.C at line 495
    Particle initialised with a location outside of the mesh.
--> FOAM Warning : 
    From function void Foam::particle::locate(const vector&, Foam::label, bool, Foam::string)
    in file particle/particle.C at line 495
    Particle initialised with a location outside of the mesh.
--> FOAM Warning : 
    From function void Foam::particle::locate(const vector&, Foam::label, bool, Foam::string)
    in file particle/particle.C at line 495
    Particle initialised with a location outside of the mesh.
--> FOAM Warning : 
    From function void Foam::particle::locate(const vector&, Foam::label, bool, Foam::string)
    in file particle/particle.C at line 495
    Particle initialised with a location outside of the mesh.
--> FOAM Warning : 
    From function void Foam::particle::locate(const vector&, Foam::label, bool, Foam::string)
    in file particle/particle.C at line 495
    Particle initialised with a location outside of the mesh.
--> FOAM Warning : 
    From function void Foam::particle::locate(const vector&, Foam::label, bool, Foam::string)
    in file particle/particle.C at line 495
    Particle initialised with a location outside of the mesh.
--> FOAM Warning : 
    From function void Foam::particle::locate(const vector&, Foam::label, bool, Foam::string)
    in file particle/particle.C at line 495
    Particle initialised with a location outside of the mesh.
--> FOAM Warning : 
    From function void Foam::particle::locate(const vector&, Foam::label, bool, Foam::string)
    in file particle/particle.C at line 495
    Particle initialised with a location outside of the mesh.
--> FOAM Warning : 
    From function void Foam::particle::locate(const vector&, Foam::label, bool, Foam::string)
    in file particle/particle.C at line 495
    Particle initialised with a location outside of the mesh.
--> FOAM Warning : 
    From function void Foam::particle::locate(const vector&, Foam::label, bool, Foam::string)
    in file particle/particle.C at line 495
    Particle initialised with a location outside of the mesh.
--> FOAM Warning : 
    From function void Foam::particle::locate(const vector&, Foam::label, bool, Foam::string)
    in file particle/particle.C at line 495
    Particle initialised with a location outside of the mesh.
--> FOAM Warning : 
    From function void Foam::particle::locate(const vector&, Foam::label, bool, Foam::string)
    in file particle/particle.C at line 495
    Particle initialised with a location outside of the mesh.
--> FOAM Warning : 
    From function void Foam::particle::locate(const vector&, Foam::label, bool, Foam::string)
    in file particle/particle.C at line 495
    Particle initialised with a location outside of the mesh.
--> FOAM Warning : 
    From function void Foam::particle::locate(const vector&, Foam::label, bool, Foam::string)
    in file particle/particle.C at line 495
    Particle initialised with a location outside of the mesh.
--> FOAM Warning : 
    From function void Foam::particle::locate(const vector&, Foam::label, bool, Foam::string)
    in file particle/particle.C at line 495
    Particle initialised with a location outside of the mesh.
--> FOAM Warning : 
    From function void Foam::particle::locate(const vector&, Foam::label, bool, Foam::string)
    in file particle/particle.C at line 495
    Particle initialised with a location outside of the mesh.
--> FOAM Warning : 
    From function void Foam::particle::locate(const vector&, Foam::label, bool, Foam::string)
    in file particle/particle.C at line 495
    Particle initialised with a location outside of the mesh.
--> FOAM Warning : 
    From function void Foam::particle::locate(const vector&, Foam::label, bool, Foam::string)
    in file particle/particle.C at line 495
    Particle initialised with a location outside of the mesh.
--> FOAM Warning : 
    From function void Foam::particle::locate(const vector&, Foam::label, bool, Foam::string)
    in file particle/particle.C at line 495
    Particle initialised with a location outside of the mesh.
--> FOAM Warning : 
    From function void Foam::particle::locate(const vector&, Foam::label, bool, Foam::string)
    in file particle/particle.C at line 495
    Particle initialised with a location outside of the mesh.
--> FOAM Warning : 
    From function void Foam::particle::locate(const vector&, Foam::label, bool, Foam::string)
    in file particle/particle.C at line 495
    Particle initialised with a location outside of the mesh.
--> FOAM Warning : 
    From function void Foam::particle::locate(const vector&, Foam::label, bool, Foam::string)
    in file particle/particle.C at line 495
    Particle initialised with a location outside of the mesh.
--> FOAM Warning : 
    From function void Foam::particle::locate(const vector&, Foam::label, bool, Foam::string)
    in file particle/particle.C at line 495
    Particle initialised with a location outside of the mesh.
--> FOAM Warning : 
    From function void Foam::particle::locate(const vector&, Foam::label, bool, Foam::string)
    in file particle/particle.C at line 500
    Suppressing any further warnings about particles being located outside of the mesh.
    Particles inserted              = 524
    Collisions                      = 682
    Acceptance rate                 = 0.986975398

Cloud name: dsmc
    Number of dsmc particles        = 62571
    Number of molecules             = 6.2571e+16
    Mass in system                  = 3.00091412e-09
    Average linear momentum         = (6.300939247e-23 -1.669715395e-23 3.912387015e-23)
   |Average linear momentum|        = 7.602404688e-23
    Average linear kinetic energy   = 6.696412135e-20
    Average internal energy         = 4.118402792e-21
    Average total energy            = 7.108252414e-20

ExecutionTime = 0.94 s  ClockTime = 2 s

    Reading/initialising field rhoNMean
    Reading/initialising field rhoMMean
    Reading/initialising field dsmcRhoNMean
    Reading/initialising field momentumMean
    Reading/initialising field linearKEMean
    Reading/initialising field internalEMean
    Reading/initialising field iDofMean
    Reading/initialising field qMean
    Reading/initialising field fDMean
fieldAverage fieldAverage1 write:
    Calculating averages

Time = 2e-06

    Particles inserted              = 819
    Collisions                      = 654
    Acceptance rate                 = 0.984939759

Cloud name: dsmc
    Number of dsmc particles        = 61637
    Number of molecules             = 6.1637e+16
    Mass in system                  = 2.956318e-09
    Average linear momentum         = (6.212792456e-23 -1.643692986e-23 3.855371748e-23)
   |Average linear momentum|        = 7.494291698e-23
    Average linear kinetic energy   = 6.605173579e-20
    Average internal energy         = 4.114465828e-21
    Average total energy            = 7.016620162e-20

ExecutionTime = 1.01 s  ClockTime = 3 s

fieldAverage fieldAverage1 write:
    Calculating averages

Time = 3e-06

    Particles inserted              = 798
    Collisions                      = 683
    Acceptance rate                 = 0.988422576

Cloud name: dsmc
    Number of dsmc particles        = 60674
    Number of molecules             = 6.0674e+16
    Mass in system                  = 2.9109758e-09
    Average linear momentum         = (6.125153963e-23 -1.616053211e-23 3.799553948e-23)
   |Average linear momentum|        = 7.386863289e-23
    Average linear kinetic energy   = 6.5145706e-20
    Average internal energy         = 4.116207411e-21
    Average total energy            = 6.926191341e-20

ExecutionTime = 1.09 s  ClockTime = 3 s

fieldAverage fieldAverage1 write:
    Calculating averages

Time = 4e-06

    Particles inserted              = 504
    Collisions                      = 816
    Acceptance rate                 = 0.9634002361

Cloud name: dsmc
    Number of dsmc particles        = 59484
    Number of molecules             = 5.9484e+16
    Mass in system                  = 2.85501852e-09
    Average linear momentum         = (6.065805685e-23 -1.597522991e-23 3.759190667e-23)
   |Average linear momentum|        = 7.312837533e-23
    Average linear kinetic energy   = 6.450460369e-20
    Average internal energy         = 4.11880622e-21
    Average total energy            = 6.862340991e-20

ExecutionTime = 1.16 s  ClockTime = 3 s

fieldAverage fieldAverage1 write:
    Calculating averages

Time = 5e-06

    Particles inserted              = 551
    Collisions                      = 857
    Acceptance rate                 = 0.9325353645

Cloud name: dsmc
    Number of dsmc particles        = 58269
    Number of molecules             = 5.8269e+16
    Mass in system                  = 2.79789874e-09
    Average linear momentum         = (5.999975529e-23 -1.577068966e-23 3.71565177e-23)
   |Average linear momentum|        = 7.231384442e-23
    Average linear kinetic energy   = 6.378998146e-20
    Average internal energy         = 4.124571812e-21
    Average total energy            = 6.791455328e-20

ExecutionTime = 1.23 s  ClockTime = 3 s

fieldAverage fieldAverage1 write:
    Calculating averages

Time = 6e-06

    Particles inserted              = 783
    Collisions                      = 861
    Acceptance rate                 = 0.9140127389

Cloud name: dsmc
    Number of dsmc particles        = 57372
    Number of molecules             = 5.7372e+16
    Mass in system                  = 2.755513e-09
    Average linear momentum         = (5.908476063e-23 -1.55172764e-23 3.656508714e-23)
   |Average linear momentum|        = 7.119550831e-23
    Average linear kinetic energy   = 6.285920578e-20
    Average internal energy         = 4.130353933e-21
    Average total energy            = 6.698955971e-20

ExecutionTime = 1.3 s  ClockTime = 3 s

fieldAverage fieldAverage1 write:
    Calculating averages

Time = 7e-06

    Particles inserted              = 769
    Collisions                      = 861
    Acceptance rate                 = 0.8839835729

Cloud name: dsmc
    Number of dsmc particles        = 56487
    Number of molecules             = 5.6487e+16
    Mass in system                  = 2.71283128e-09
    Average linear momentum         = (5.815006509e-23 -1.525975275e-23 3.596488751e-23)
   |Average linear momentum|        = 7.00554299e-23
    Average linear kinetic energy   = 6.190297777e-20
    Average internal energy         = 4.133832404e-21
    Average total energy            = 6.603681017e-20

ExecutionTime = 1.37 s  ClockTime = 3 s

fieldAverage fieldAverage1 write:
    Calculating averages

Time = 8e-06

    Particles inserted              = 447
    Collisions                      = 849
    Acceptance rate                 = 0.8816199377

Cloud name: dsmc
    Number of dsmc particles        = 55307
    Number of molecules             = 5.5307e+16
    Mass in system                  = 2.65633276e-09
    Average linear momentum         = (5.754572599e-23 -1.507303333e-23 3.556404159e-23)
   |Average linear momentum|        = 6.930734425e-23
    Average linear kinetic energy   = 6.12634678e-20
    Average internal energy         = 4.132727392e-21
    Average total energy            = 6.539619519e-20

ExecutionTime = 1.44 s  ClockTime = 3 s

fieldAverage fieldAverage1 write:
    Calculating averages

Time = 9e-06

    Particles inserted              = 262
    Collisions                      = 891
    Acceptance rate                 = 0.8617021277

Cloud name: dsmc
    Number of dsmc particles        = 54020
    Number of molecules             = 5.402e+16
    Mass in system                  = 2.59466014e-09
    Average linear momentum         = (5.715921769e-23 -1.494091597e-23 3.52950695e-23)
   |Average linear momentum|        = 6.881968517e-23
    Average linear kinetic energy   = 6.080933199e-20
    Average internal energy         = 4.139703826e-21
    Average total energy            = 6.494903582e-20

ExecutionTime = 1.5 s  ClockTime = 3 s

fieldAverage fieldAverage1 write:
    Calculating averages

Time = 1e-05

    Particles inserted              = 495
    Collisions                      = 800
    Acceptance rate                 = 0.8230452675

Cloud name: dsmc
    Number of dsmc particles        = 52976
    Number of molecules             = 5.2976e+16
    Mass in system                  = 2.54415462e-09
    Average linear momentum         = (5.647367857e-23 -1.473947121e-23 3.485897172e-23)
   |Average linear momentum|        = 6.798291177e-23
    Average linear kinetic energy   = 6.007697151e-20
    Average internal energy         = 4.139290468e-21
    Average total energy            = 6.421626198e-20

ExecutionTime = 1.58 s  ClockTime = 3 s

fieldAverage fieldAverage1 write:
    Calculating averages

Time = 1.1e-05

    Particles inserted              = 604
    Collisions                      = 830
    Acceptance rate                 = 0.8469387755

Cloud name: dsmc
    Number of dsmc particles        = 52047
    Number of molecules             = 5.2047e+16
    Mass in system                  = 2.498798e-09
    Average linear momentum         = (5.565846071e-23 -1.450943572e-23 3.430408764e-23)
   |Average linear momentum|        = 6.697132523e-23
    Average linear kinetic energy   = 5.923581187e-20
    Average internal energy         = 4.141659899e-21
    Average total energy            = 6.337747177e-20

ExecutionTime = 1.64 s  ClockTime = 3 s

fieldAverage fieldAverage1 write:
    Calculating averages

Time = 1.2e-05

    Particles inserted              = 444
    Collisions                      = 868
    Acceptance rate                 = 0.821192053

Cloud name: dsmc
    Number of dsmc particles        = 51021
    Number of molecules             = 5.1021e+16
    Mass in system                  = 2.44883158e-09
    Average linear momentum         = (5.49917669e-23 -1.433605007e-23 3.386045279e-23)
   |Average linear momentum|        = 6.615245288e-23
    Average linear kinetic energy   = 5.854277001e-20
    Average internal energy         = 4.147120069e-21
    Average total energy            = 6.268989008e-20

ExecutionTime = 1.72 s  ClockTime = 3 s

fieldAverage fieldAverage1 write:
    Calculating averages

Time = 1.3e-05

    Particles inserted              = 246
    Collisions                      = 823
    Acceptance rate                 = 0.8148514851

Cloud name: dsmc
    Number of dsmc particles        = 49812
    Number of molecules             = 4.9812e+16
    Mass in system                  = 2.39058736e-09
    Average linear momentum         = (5.452533834e-23 -1.418988203e-23 3.35619228e-23)
   |Average linear momentum|        = 6.558024043e-23
    Average linear kinetic energy   = 5.802567801e-20
    Average internal energy         = 4.156673038e-21
    Average total energy            = 6.218235105e-20

ExecutionTime = 1.78 s  ClockTime = 3 s

fieldAverage fieldAverage1 write:
    Calculating averages

Time = 1.4e-05

    Particles inserted              = 363
    Collisions                      = 835
    Acceptance rate                 = 0.8028846154

Cloud name: dsmc
    Number of dsmc particles        = 48714
    Number of molecules             = 4.8714e+16
    Mass in system                  = 2.33738548e-09
    Average linear momentum         = (5.392099609e-23 -1.403625519e-23 3.318677616e-23)
   |Average linear momentum|        = 6.485254344e-23
    Average linear kinetic energy   = 5.737527125e-20
    Average internal energy         = 4.163646856e-21
    Average total energy            = 6.15389181e-20

ExecutionTime = 1.84 s  ClockTime = 3 s

fieldAverage fieldAverage1 write:
    Calculating averages

Time = 1.5e-05

    Particles inserted              = 559
    Collisions                      = 766
    Acceptance rate                 = 0.7962577963

Cloud name: dsmc
    Number of dsmc particles        = 47791
    Number of molecules             = 4.7791e+16
    Mass in system                  = 2.29226814e-09
    Average linear momentum         = (5.307711331e-23 -1.377398846e-23 3.264977114e-23)
   |Average linear momentum|        = 6.381935655e-23
    Average linear kinetic energy   = 5.64911121e-20
    Average internal energy         = 4.171965878e-21
    Average total energy            = 6.066307798e-20

ExecutionTime = 1.92 s  ClockTime = 3 s

fieldAverage fieldAverage1 write:
    Calculating averages

Time = 1.6e-05

    Particles inserted              = 512
    Collisions                      = 758
    Acceptance rate                 = 0.795383001

Cloud name: dsmc
    Number of dsmc particles        = 46901
    Number of molecules             = 4.6901e+16
    Mass in system                  = 2.2490825e-09
    Average linear momentum         = (5.2286102e-23 -1.350861632e-23 3.213934187e-23)
   |Average linear momentum|        = 6.284310999e-23
    Average linear kinetic energy   = 5.567914835e-20
    Average internal energy         = 4.180810644e-21
    Average total energy            = 5.985995899e-20

ExecutionTime = 2 s  ClockTime = 4 s

fieldAverage fieldAverage1 write:
    Calculating averages

Time = 1.7e-05

    Particles inserted              = 419
    Collisions                      = 790
    Acceptance rate                 = 0.7662463628

Cloud name: dsmc
    Number of dsmc particles        = 45974
    Number of molecules             = 4.5974e+16
    Mass in system                  = 2.2046199e-09
    Average linear momentum         = (5.158969641e-23 -1.330565279e-23 3.167994542e-23)
   |Average linear momentum|        = 6.198512817e-23
    Average linear kinetic energy   = 5.494845923e-20
    Average internal energy         = 4.192949114e-21
    Average total energy            = 5.914140835e-20

ExecutionTime = 2.06 s  ClockTime = 4 s

fieldAverage fieldAverage1 write:
    Calculating averages

Time = 1.8e-05

    Particles inserted              = 485
    Collisions                      = 695
    Acceptance rate                 = 0.7579062159

Cloud name: dsmc
    Number of dsmc particles        = 45057
    Number of molecules             = 4.5057e+16
    Mass in system                  = 2.16119162e-09
    Average linear momentum         = (5.077795904e-23 -1.312482239e-23 3.120746512e-23)
   |Average linear momentum|        = 6.102923862e-23
    Average linear kinetic energy   = 5.408446557e-20
    Average internal energy         = 4.198644312e-21
    Average total energy            = 5.828310989e-20

ExecutionTime = 2.11 s  ClockTime = 4 s

fieldAverage fieldAverage1 write:
    Calculating averages

Time = 1.9e-05

    Particles inserted              = 784
    Collisions                      = 749
    Acceptance rate                 = 0.7666325486

Cloud name: dsmc
    Number of dsmc particles        = 44502
    Number of molecules             = 4.4502e+16
    Mass in system                  = 2.13525834e-09
    Average linear momentum         = (4.963197035e-23 -1.285693269e-23 3.047266786e-23)
   |Average linear momentum|        = 5.964240677e-23
    Average linear kinetic energy   = 5.290094012e-20
    Average internal energy         = 4.205338416e-21
    Average total energy            = 5.710627853e-20

ExecutionTime = 2.2 s  ClockTime = 4 s

fieldAverage fieldAverage1 write:
    Calculating averages

Time = 2e-05

    Particles inserted              = 787
    Collisions                      = 725
    Acceptance rate                 = 0.7544224766

Cloud name: dsmc
    Number of dsmc particles        = 44010
    Number of molecules             = 4.401e+16
    Mass in system                  = 2.11242006e-09
    Average linear momentum         = (4.848590344e-23 -1.254595328e-23 2.972612097e-23)
   |Average linear momentum|        = 5.82402442e-23
    Average linear kinetic energy   = 5.17724256e-20
    Average internal energy         = 4.2207944e-21
    Average total energy            = 5.599322e-20

ExecutionTime = 2.28 s  ClockTime = 4 s

fieldAverage fieldAverage1 write:
    Calculating averages

Time = 2.1e-05

    Particles inserted              = 637
    Collisions                      = 735
    Acceptance rate                 = 0.749235474

Cloud name: dsmc
    Number of dsmc particles        = 43364
    Number of molecules             = 4.3364e+16
    Mass in system                  = 2.08213612e-09
    Average linear momentum         = (4.745455314e-23 -1.223415228e-23 2.903573703e-23)
   |Average linear momentum|        = 5.696212005e-23
    Average linear kinetic energy   = 5.071474137e-20
    Average internal energy         = 4.236794893e-21
    Average total energy            = 5.495153626e-20

ExecutionTime = 2.34 s  ClockTime = 4 s

fieldAverage fieldAverage1 write:
    Calculating averages

Time = 2.2e-05

    Particles inserted              = 562
    Collisions                      = 707
    Acceptance rate                 = 0.739539749

Cloud name: dsmc
    Number of dsmc particles        = 42601
    Number of molecules             = 4.2601e+16
    Mass in system                  = 2.04627266e-09
    Average linear momentum         = (4.646816725e-23 -1.198505343e-23 2.843973471e-23)
   |Average linear momentum|        = 5.578306718e-23
    Average linear kinetic energy   = 4.972130095e-20
    Average internal energy         = 4.241401516e-21
    Average total energy            = 5.396270246e-20

ExecutionTime = 2.42 s  ClockTime = 4 s

fieldAverage fieldAverage1 write:
    Calculating averages

Time = 2.3e-05

    Particles inserted              = 590
    Collisions                      = 701
    Acceptance rate                 = 0.7481323372

Cloud name: dsmc
    Number of dsmc particles        = 41878
    Number of molecules             = 4.1878e+16
    Mass in system                  = 2.01169326e-09
    Average linear momentum         = (4.545565723e-23 -1.173778421e-23 2.78152934e-23)
   |Average linear momentum|        = 5.456814913e-23
    Average linear kinetic energy   = 4.86603618e-20
    Average internal energy         = 4.259678608e-21
    Average total energy            = 5.292004041e-20

ExecutionTime = 2.48 s  ClockTime = 4 s

fieldAverage fieldAverage1 write:
    Calculating averages

Time = 2.4e-05

    Particles inserted              = 554
    Collisions                      = 689
    Acceptance rate                 = 0.7392703863

Cloud name: dsmc
    Number of dsmc particles        = 41220
    Number of molecules             = 4.122e+16
    Mass in system                  = 1.98004368e-09
    Average linear momentum         = (4.453266351e-23 -1.147303367e-23 2.721353711e-23)
   |Average linear momentum|        = 5.343561755e-23
    Average linear kinetic energy   = 4.771452849e-20
    Average internal energy         = 4.275752719e-21
    Average total energy            = 5.199028121e-20

ExecutionTime = 2.53 s  ClockTime = 4 s

fieldAverage fieldAverage1 write:
    Calculating averages

Time = 2.5e-05

    Particles inserted              = 495
    Collisions                      = 648
    Acceptance rate                 = 0.7380410023

Cloud name: dsmc
    Number of dsmc particles        = 40513
    Number of molecules             = 4.0513e+16
    Mass in system                  = 1.9458508e-09
    Average linear momentum         = (4.359659879e-23 -1.118138174e-23 2.6619646e-23)
   |Average linear momentum|        = 5.229046067e-23
    Average linear kinetic energy   = 4.678460942e-20
    Average internal energy         = 4.300129727e-21
    Average total energy            = 5.108473914e-20

ExecutionTime = 2.59 s  ClockTime = 4 s

fieldAverage fieldAverage1 write:
    Calculating averages

Time = 2.6e-05

    Particles inserted              = 443
    Collisions                      = 690
    Acceptance rate                 = 0.7172557173

Cloud name: dsmc
    Number of dsmc particles        = 39780
    Number of molecules             = 3.978e+16
    Mass in system                  = 1.9101113e-09
    Average linear momentum         = (4.270183885e-23 -1.094892406e-23 2.605659419e-23)
   |Average linear momentum|        = 5.120812514e-23
    Average linear kinetic energy   = 4.587391668e-20
    Average internal energy         = 4.311115104e-21
    Average total energy            = 5.018503178e-20

ExecutionTime = 2.64 s  ClockTime = 4 s

fieldAverage fieldAverage1 write:
    Calculating averages

Time = 2.7e-05

    Particles inserted              = 365
    Collisions                      = 632
    Acceptance rate                 = 0.7256027555

Cloud name: dsmc
    Number of dsmc particles        = 38923
    Number of molecules             = 3.8923e+16
    Mass in system                  = 1.86849988e-09
    Average linear momentum         = (4.187139131e-23 -1.073711297e-23 2.557548004e-23)
   |Average linear momentum|        = 5.022553319e-23
    Average linear kinetic energy   = 4.500256154e-20
    Average internal energy         = 4.314314332e-21
    Average total energy            = 4.931687587e-20

ExecutionTime = 2.7 s  ClockTime = 4 s

fieldAverage fieldAverage1 write:
    Calculating averages

Time = 2.8e-05

    Particles inserted              = 456
    Collisions                      = 593
    Acceptance rate                 = 0.7026066351

Cloud name: dsmc
    Number of dsmc particles        = 38254
    Number of molecules             = 3.8254e+16
    Mass in system                  = 1.83572976e-09
    Average linear momentum         = (4.100563131e-23 -1.04848285e-23 2.498353945e-23)
   |Average linear momentum|        = 4.914845543e-23
    Average linear kinetic energy   = 4.410531699e-20
    Average internal energy         = 4.318596568e-21
    Average total energy            = 4.842391356e-20

ExecutionTime = 2.76 s  ClockTime = 4 s

fieldAverage fieldAverage1 write:
    Calculating averages

Time = 2.9e-05

    Particles inserted              = 448
    Collisions                      = 577
    Acceptance rate                 = 0.712345679

Cloud name: dsmc
    Number of dsmc particles        = 37629
    Number of molecules             = 3.7629e+16
    Mass in system                  = 1.80498578e-09
    Average linear momentum         = (4.006604125e-23 -1.023198922e-23 2.435304606e-23)
   |Average linear momentum|        = 4.79901252e-23
    Average linear kinetic energy   = 4.314847306e-20
    Average internal energy         = 4.330297679e-21
    Average total energy            = 4.747877074e-20

ExecutionTime = 2.81 s  ClockTime = 4 s

fieldAverage fieldAverage1 write:
    Calculating averages

Time = 3e-05

    Particles inserted              = 417
    Collisions                      = 593
    Acceptance rate                 = 0.7258261934

Cloud name: dsmc
    Number of dsmc particles        = 36934
    Number of molecules             = 3.6934e+16
    Mass in system                  = 1.77107286e-09
    Average linear momentum         = (3.916533105e-23 -9.989815639e-24 2.375148427e-23)
   |Average linear momentum|        = 4.688126041e-23
    Average linear kinetic energy   = 4.222324042e-20
    Average internal energy         = 4.340712578e-21
    Average total energy            = 4.6563953e-20

ExecutionTime = 2.86 s  ClockTime = 4 s

fieldAverage fieldAverage1 write:
    Calculating averages

Time = 3.1e-05

    Particles inserted              = 405
    Collisions                      = 567
    Acceptance rate                 = 0.7105263158

Cloud name: dsmc
    Number of dsmc particles        = 36224
    Number of molecules             = 3.6224e+16
    Mass in system                  = 1.73652202e-09
    Average linear momentum         = (3.823293109e-23 -9.769356613e-24 2.318821064e-23)
   |Average linear momentum|        = 4.576997336e-23
    Average linear kinetic energy   = 4.126266965e-20
    Average internal energy         = 4.348050071e-21
    Average total energy            = 4.561071972e-20

ExecutionTime = 2.94 s  ClockTime = 4 s

fieldAverage fieldAverage1 write:
    Calculating averages

Time = 3.2e-05

    Particles inserted              = 438
    Collisions                      = 587
    Acceptance rate                 = 0.7229064039

Cloud name: dsmc
    Number of dsmc particles        = 35667
    Number of molecules             = 3.5667e+16
    Mass in system                  = 1.7094895e-09
    Average linear momentum         = (3.738289317e-23 -9.581944085e-24 2.265181591e-23)
   |Average linear momentum|        = 4.474817447e-23
    Average linear kinetic energy   = 4.033749943e-20
    Average internal energy         = 4.369845979e-21
    Average total energy            = 4.47073454e-20

ExecutionTime = 3.01 s  ClockTime = 5 s

fieldAverage fieldAverage1 write:
    Calculating averages

Time = 3.3e-05

    Particles inserted              = 517
    Collisions                      = 531
    Acceptance rate                 = 0.7185385656

Cloud name: dsmc
    Number of dsmc particles        = 35132
    Number of molecules             = 3.5132e+16
    Mass in system                  = 1.68389042e-09
    Average linear momentum         = (3.630908628e-23 -9.325832023e-24 2.199942484e-23)
   |Average linear momentum|        = 4.346602792e-23
    Average linear kinetic energy   = 3.926045487e-20
    Average internal energy         = 4.383062279e-21
    Average total energy            = 4.364351715e-20

ExecutionTime = 3.06 s  ClockTime = 5 s

fieldAverage fieldAverage1 write:
    Calculating averages

Time = 3.4e-05

    Particles inserted              = 617
    Collisions                      = 521
    Acceptance rate                 = 0.7031039136

Cloud name: dsmc
    Number of dsmc particles        = 34747
    Number of molecules             = 3.4747e+16
    Mass in system                  = 1.6657165e-09
    Average linear momentum         = (3.516129015e-23 -9.02727998e-24 2.127571793e-23)
   |Average linear momentum|        = 4.207688537e-23
    Average linear kinetic energy   = 3.811354207e-20
    Average internal energy         = 4.38267214e-21
    Average total energy            = 4.249621421e-20

ExecutionTime = 3.12 s  ClockTime = 5 s

fieldAverage fieldAverage1 write:
    Calculating averages

Time = 3.5e-05

    Particles inserted              = 671
    Collisions                      = 523
    Acceptance rate                 = 0.6881578947

Cloud name: dsmc
    Number of dsmc particles        = 34475
    Number of molecules             = 3.4475e+16
    Mass in system                  = 1.65306188e-09
    Average linear momentum         = (3.399989919e-23 -8.739497487e-24 2.057749612e-23)
   |Average linear momentum|        = 4.069158768e-23
    Average linear kinetic energy   = 3.695186501e-20
    Average internal energy         = 4.406327741e-21
    Average total energy            = 4.135819275e-20

ExecutionTime = 3.17 s  ClockTime = 5 s

fieldAverage fieldAverage1 write:
    Calculating averages

Time = 3.6e-05

    Particles inserted              = 555
    Collisions                      = 521
    Acceptance rate                 = 0.7117486339

Cloud name: dsmc
    Number of dsmc particles        = 34083
    Number of molecules             = 3.4083e+16
    Mass in system                  = 1.63491332e-09
    Average linear momentum         = (3.296665637e-23 -8.511631357e-24 1.990671437e-23)
   |Average linear momentum|        = 3.944015184e-23
    Average linear kinetic energy   = 3.587471829e-20
    Average internal energy         = 4.434323557e-21
    Average total energy            = 4.030904185e-20

ExecutionTime = 3.22 s  ClockTime = 5 s

fieldAverage fieldAverage1 write:
    Calculating averages

Time = 3.7e-05

    Particles inserted              = 624
    Collisions                      = 496
    Acceptance rate                 = 0.6917712692

Cloud name: dsmc
    Number of dsmc particles        = 33707
    Number of molecules             = 3.3707e+16
    Mass in system                  = 1.61799864e-09
    Average linear momentum         = (3.179472052e-23 -8.198510103e-24 1.919015732e-23)
   |Average linear momentum|        = 3.803132865e-23
    Average linear kinetic energy   = 3.476098051e-20
    Average internal energy         = 4.437751489e-21
    Average total energy            = 3.9198732e-20

ExecutionTime = 3.28 s  ClockTime = 5 s

fieldAverage fieldAverage1 write:
    Calculating averages

Time = 3.8e-05

    Particles inserted              = 692
    Collisions                      = 465
    Acceptance rate                 = 0.6633380884

Cloud name: dsmc
    Number of dsmc particles        = 33411
    Number of molecules             = 3.3411e+16
    Mass in system                  = 1.60434718e-09
    Average linear momentum         = (3.053769384e-23 -7.866279343e-24 1.837451216e-23)
   |Average linear momentum|        = 3.649728473e-23
    Average linear kinetic energy   = 3.357189744e-20
    Average internal energy         = 4.441595551e-21
    Average total energy            = 3.801349299e-20

ExecutionTime = 3.33 s  ClockTime = 5 s

fieldAverage fieldAverage1 write:
    Calculating averages

Time = 3.9e-05

    Particles inserted              = 663
    Collisions                      = 507
    Acceptance rate                 = 0.7061281337

Cloud name: dsmc
    Number of dsmc particles        = 33144
    Number of molecules             = 3.3144e+16
    Mass in system                  = 1.59179928e-09
    Average linear momentum         = (2.931643349e-23 -7.554117833e-24 1.763455615e-23)
   |Average linear momentum|        = 3.503563243e-23
    Average linear kinetic energy   = 3.240124497e-20
    Average internal energy         = 4.464003227e-21
    Average total energy            = 3.68652482e-20

ExecutionTime = 3.37 s  ClockTime = 5 s

fieldAverage fieldAverage1 write:
    Calculating averages

Time = 4e-05

    Particles inserted              = 543
    Collisions                      = 484
    Acceptance rate                 = 0.7366818874

Cloud name: dsmc
    Number of dsmc particles        = 32733
    Number of molecules             = 3.2733e+16
    Mass in system                  = 1.57227734e-09
    Average linear momentum         = (2.817537548e-23 -7.305214119e-24 1.694954678e-23)
   |Average linear momentum|        = 3.368241489e-23
    Average linear kinetic energy   = 3.129454255e-20
    Average internal energy         = 4.469872364e-21
    Average total energy            = 3.576441491e-20

ExecutionTime = 3.44 s  ClockTime = 5 s

fieldAverage fieldAverage1 write:
    Calculating averages

Time = 4.1e-05

    Particles inserted              = 419
    Collisions                      = 478
    Acceptance rate                 = 0.6917510854

Cloud name: dsmc
    Number of dsmc particles        = 32221
    Number of molecules             = 3.2221e+16
    Mass in system                  = 1.54774114e-09
    Average linear momentum         = (2.72130989e-23 -7.048839412e-24 1.638503255e-23)
   |Average linear momentum|        = 3.253779619e-23
    Average linear kinetic energy   = 3.031982513e-20
    Average internal energy         = 4.484597462e-21
    Average total energy            = 3.480442259e-20

ExecutionTime = 3.5 s  ClockTime = 5 s

fieldAverage fieldAverage1 write:
    Calculating averages

Time = 4.2e-05

    Particles inserted              = 454
    Collisions                      = 481
    Acceptance rate                 = 0.7104874446

Cloud name: dsmc
    Number of dsmc particles        = 31799
    Number of molecules             = 3.1799e+16
    Mass in system                  = 1.52717148e-09
    Average linear momentum         = (2.618467517e-23 -6.809998408e-24 1.574118365e-23)
   |Average linear momentum|        = 3.130172767e-23
    Average linear kinetic energy   = 2.9331403e-20
    Average internal energy         = 4.484043191e-21
    Average total energy            = 3.381544619e-20

ExecutionTime = 3.56 s  ClockTime = 5 s

fieldAverage fieldAverage1 write:
    Calculating averages

Time = 4.3e-05

    Particles inserted              = 576
    Collisions                      = 452
    Acceptance rate                 = 0.7129337539

Cloud name: dsmc
    Number of dsmc particles        = 31506
    Number of molecules             = 3.1506e+16
    Mass in system                  = 1.51254074e-09
    Average linear momentum         = (2.50632738e-23 -6.543965886e-24 1.504416857e-23)
   |Average linear momentum|        = 2.995526983e-23
    Average linear kinetic energy   = 2.826773151e-20
    Average internal energy         = 4.494898539e-21
    Average total energy            = 3.276263005e-20

ExecutionTime = 3.61 s  ClockTime = 5 s

fieldAverage fieldAverage1 write:
    Calculating averages

Time = 4.4e-05

    Particles inserted              = 471
    Collisions                      = 439
    Acceptance rate                 = 0.703525641

Cloud name: dsmc
    Number of dsmc particles        = 31116
    Number of molecules             = 3.1116e+16
    Mass in system                  = 1.49334654e-09
    Average linear momentum         = (2.405188433e-23 -6.29477385e-24 1.443273763e-23)
   |Average linear momentum|        = 2.874754308e-23
    Average linear kinetic energy   = 2.727699305e-20
    Average internal energy         = 4.506640227e-21
    Average total energy            = 3.178363328e-20

ExecutionTime = 3.67 s  ClockTime = 5 s

fieldAverage fieldAverage1 write:
    Calculating averages

Time = 4.5e-05

    Particles inserted              = 287
    Collisions                      = 423
    Acceptance rate                 = 0.687804878

Cloud name: dsmc
    Number of dsmc particles        = 30611
    Number of molecules             = 3.0611e+16
    Mass in system                  = 1.46868568e-09
    Average linear momentum         = (2.328613009e-23 -6.103037621e-24 1.398080867e-23)
   |Average linear momentum|        = 2.783799442e-23
    Average linear kinetic energy   = 2.649934381e-20
    Average internal energy         = 4.513430767e-21
    Average total energy            = 3.101277458e-20

ExecutionTime = 3.73 s  ClockTime = 5 s

fieldAverage fieldAverage1 write:
    Calculating averages

Time = 4.6e-05

    Particles inserted              = 327
    Collisions                      = 409
    Acceptance rate                 = 0.6943972835

Cloud name: dsmc
    Number of dsmc particles        = 30183
    Number of molecules             = 3.0183e+16
    Mass in system                  = 1.44765828e-09
    Average linear momentum         = (2.243285317e-23 -5.873850009e-24 1.346616693e-23)
   |Average linear momentum|        = 2.681553034e-23
    Average linear kinetic energy   = 2.565785091e-20
    Average internal energy         = 4.513115418e-21
    Average total energy            = 3.017096632e-20

ExecutionTime = 3.78 s  ClockTime = 5 s

fieldAverage fieldAverage1 write:
    Calculating averages

Time = 4.7e-05

    Particles inserted              = 571
    Collisions                      = 384
    Acceptance rate                 = 0.6748681898

Cloud name: dsmc
    Number of dsmc particles        = 29970
    Number of molecules             = 2.997e+16
    Mass in system                  = 1.43682698e-09
    Average linear momentum         = (2.126930364e-23 -5.641405763e-24 1.286554277e-23)
   |Average linear momentum|        = 2.548982007e-23
    Average linear kinetic energy   = 2.463832949e-20
    Average internal energy         = 4.513124678e-21
    Average total energy            = 2.915145417e-20

ExecutionTime = 3.83 s  ClockTime = 5 s

fieldAverage fieldAverage1 write:
    Calculating averages

Time = 4.8e-05

    Particles inserted              = 608
    Collisions                      = 417
    Acceptance rate                 = 0.7043918919

Cloud name: dsmc
    Number of dsmc particles        = 29790
    Number of molecules             = 2.979e+16
    Mass in system                  = 1.42781484e-09
    Average linear momentum         = (2.015835621e-23 -5.415674585e-24 1.227018366e-23)
   |Average linear momentum|        = 2.421252286e-23
    Average linear kinetic energy   = 2.35907399e-20
    Average internal energy         = 4.525757376e-21
    Average total energy            = 2.811649727e-20

ExecutionTime = 3.87 s  ClockTime = 5 s

fieldAverage fieldAverage1 write:
    Calculating averages

Time = 4.9e-05

    Particles inserted              = 446
    Collisions                      = 377
    Acceptance rate                 = 0.696857671

Cloud name: dsmc
    Number of dsmc particles        = 29494
    Number of molecules             = 2.9494e+16
    Mass in system                  = 1.41383238e-09
    Average linear momentum         = (1.918251415e-23 -5.226312569e-24 1.171747874e-23)
   |Average linear momentum|        = 2.307774903e-23
    Average linear kinetic energy   = 2.263734462e-20
    Average internal energy         = 4.514194315e-21
    Average total energy            = 2.715153893e-20

ExecutionTime = 3.95 s  ClockTime = 6 s

fieldAverage fieldAverage1 write:
    Calculating averages

Time = 5e-05

    Particles inserted              = 382
    Collisions                      = 355
    Acceptance rate                 = 0.6698113208

Cloud name: dsmc
    Number of dsmc particles        = 29145
    Number of molecules             = 2.9145e+16
    Mass in system                  = 1.39739204e-09
    Average linear momentum         = (1.834530479e-23 -5.05580507e-24 1.122248421e-23)
   |Average linear momentum|        = 2.209197874e-23
    Average linear kinetic energy   = 2.178031363e-20
    Average internal energy         = 4.528476117e-21
    Average total energy            = 2.630878975e-20

ExecutionTime = 4.01 s  ClockTime = 6 s

fieldAverage fieldAverage1 write:
    Calculating averages

Time = 5.1e-05

    Particles inserted              = 665
    Collisions                      = 359
    Acceptance rate                 = 0.6917148362

Cloud name: dsmc
    Number of dsmc particles        = 29053
    Number of molecules             = 2.9053e+16
    Mass in system                  = 1.39312066e-09
    Average linear momentum         = (1.724910603e-23 -4.869078288e-24 1.05958788e-23)
   |Average linear momentum|        = 2.082095651e-23
    Average linear kinetic energy   = 2.07920979e-20
    Average internal energy         = 4.540745649e-21
    Average total energy            = 2.533284355e-20

ExecutionTime = 4.08 s  ClockTime = 6 s

fieldAverage fieldAverage1 write:
    Calculating averages

Time = 5.2e-05

    Particles inserted              = 725
    Collisions                      = 358
    Acceptance rate                 = 0.7261663286

Cloud name: dsmc
    Number of dsmc particles        = 29079
    Number of molecules             = 2.9079e+16
    Mass in system                  = 1.39439586e-09
    Average linear momentum         = (1.616957007e-23 -4.583251024e-24 9.995706041e-24)
   |Average linear momentum|        = 1.955441959e-23
    Average linear kinetic energy   = 1.981682932e-20
    Average internal energy         = 4.535811125e-21
    Average total energy            = 2.435264044e-20

ExecutionTime = 4.12 s  ClockTime = 6 s

fieldAverage fieldAverage1 write:
    Calculating averages

Time = 5.3e-05

    Particles inserted              = 643
    Collisions                      = 324
    Acceptance rate                 = 0.679245283

Cloud name: dsmc
    Number of dsmc particles        = 29049
    Number of molecules             = 2.9049e+16
    Mass in system                  = 1.39365624e-09
    Average linear momentum         = (1.519664982e-23 -4.334923489e-24 9.446071892e-24)
   |Average linear momentum|        = 1.841081208e-23
    Average linear kinetic energy   = 1.891927673e-20
    Average internal energy         = 4.527683484e-21
    Average total energy            = 2.344696021e-20

ExecutionTime = 4.17 s  ClockTime = 6 s

fieldAverage fieldAverage1 write:
    Calculating averages

Time = 5.4e-05

    Particles inserted              = 402
    Collisions                      = 321
    Acceptance rate                 = 0.6772151899

Cloud name: dsmc
    Number of dsmc particles        = 28815
    Number of molecules             = 2.8815e+16
    Mass in system                  = 1.38311286e-09
    Average linear momentum         = (1.444494232e-23 -4.096125968e-24 8.946698922e-24)
   |Average linear momentum|        = 1.747792974e-23
    Average linear kinetic energy   = 1.816455696e-20
    Average internal energy         = 4.51915786e-21
    Average total energy            = 2.268371482e-20

ExecutionTime = 4.23 s  ClockTime = 6 s

fieldAverage fieldAverage1 write:
    Calculating averages

Time = 5.5e-05

    Particles inserted              = 599
    Collisions                      = 353
    Acceptance rate                 = 0.7074148297

Cloud name: dsmc
    Number of dsmc particles        = 28785
    Number of molecules             = 2.8785e+16
    Mass in system                  = 1.3819628e-09
    Average linear momentum         = (1.361529128e-23 -3.907320816e-24 8.447112239e-24)
   |Average linear momentum|        = 1.649233209e-23
    Average linear kinetic energy   = 1.742360532e-20
    Average internal energy         = 4.519902885e-21
    Average total energy            = 2.19435082e-20

ExecutionTime = 4.28 s  ClockTime = 6 s

fieldAverage fieldAverage1 write:
    Calculating averages

Time = 5.6e-05

    Particles inserted              = 739
    Collisions                      = 339
    Acceptance rate                 = 0.678

Cloud name: dsmc
    Number of dsmc particles        = 28902
    Number of molecules             = 2.8902e+16
    Mass in system                  = 1.3874695e-09
    Average linear momentum         = (1.263804703e-23 -3.660224859e-24 7.908439837e-24)
   |Average linear momentum|        = 1.535125074e-23
    Average linear kinetic energy   = 1.660491101e-20
    Average internal energy         = 4.517235343e-21
    Average total energy            = 2.112214636e-20

ExecutionTime = 4.33 s  ClockTime = 6 s

fieldAverage fieldAverage1 write:
    Calculating averages

Time = 5.7e-05

    Particles inserted              = 619
    Collisions                      = 309
    Acceptance rate                 = 0.7006802721

Cloud name: dsmc
    Number of dsmc particles        = 28913
    Number of molecules             = 2.8913e+16
    Mass in system                  = 1.38800086e-09
    Average linear momentum         = (1.173830691e-23 -3.442484604e-24 7.378640275e-24)
   |Average linear momentum|        = 1.4285758e-23
    Average linear kinetic energy   = 1.586072606e-20
    Average internal energy         = 4.515951093e-21
    Average total energy            = 2.037667715e-20

ExecutionTime = 4.39 s  ClockTime = 6 s

fieldAverage fieldAverage1 write:
    Calculating averages

Time = 5.8e-05

    Particles inserted              = 334
    Collisions                      = 307
    Acceptance rate                 = 0.673245614

Cloud name: dsmc
    Number of dsmc particles        = 28643
    Number of molecules             = 2.8643e+16
    Mass in system                  = 1.37501556e-09
    Average linear momentum         = (1.10280252e-23 -3.264223349e-24 6.909417844e-24)
   |Average linear momentum|        = 1.341687553e-23
    Average linear kinetic energy   = 1.520044404e-20
    Average internal energy         = 4.499513189e-21
    Average total energy            = 1.969995723e-20

ExecutionTime = 4.46 s  ClockTime = 6 s

fieldAverage fieldAverage1 write:
    Calculating averages

Time = 5.9e-05

    Particles inserted              = 347
    Collisions                      = 318
    Acceptance rate                 = 0.7146067416

Cloud name: dsmc
    Number of dsmc particles        = 28454
    Number of molecules             = 2.8454e+16
    Mass in system                  = 1.36561802e-09
    Average linear momentum         = (1.042635954e-23 -3.133525685e-24 6.562726018e-24)
   |Average linear momentum|        = 1.271209382e-23
    Average linear kinetic energy   = 1.463645723e-20
    Average internal energy         = 4.493080339e-21
    Average total energy            = 1.912953757e-20

ExecutionTime = 4.5 s  ClockTime = 6 s

fieldAverage fieldAverage1 write:
    Calculating averages

Time = 6e-05

    Particles inserted              = 541
    Collisions                      = 325
    Acceptance rate                 = 0.723830735

Cloud name: dsmc
    Number of dsmc particles        = 28470
    Number of molecules             = 2.847e+16
    Mass in system                  = 1.36581918e-09
    Average linear momentum         = (9.771782656e-24 -2.969506562e-24 6.188490337e-24)
   |Average linear momentum|        = 1.194165475e-23
    Average linear kinetic energy   = 1.408256716e-20
    Average internal energy         = 4.481722563e-21
    Average total energy            = 1.856428973e-20

ExecutionTime = 4.55 s  ClockTime = 6 s

fieldAverage fieldAverage1 write:
    Calculating averages

Time = 6.1e-05

    Particles inserted              = 566
    Collisions                      = 318
    Acceptance rate                 = 0.7098214286

Cloud name: dsmc
    Number of dsmc particles        = 28519
    Number of molecules             = 2.8519e+16
    Mass in system                  = 1.36735624e-09
    Average linear momentum         = (9.026245937e-24 -2.780076413e-24 5.767794737e-24)
   |Average linear momentum|        = 1.106658921e-23
    Average linear kinetic energy   = 1.349708712e-20
    Average internal energy         = 4.467021626e-21
    Average total energy            = 1.796410875e-20

ExecutionTime = 4.6 s  ClockTime = 6 s

fieldAverage fieldAverage1 write:
    Calculating averages

Time = 6.2e-05

    Particles inserted              = 381
    Collisions                      = 303
    Acceptance rate                 = 0.7013888889

Cloud name: dsmc
    Number of dsmc particles        = 28399
    Number of molecules             = 2.8399e+16
    Mass in system                  = 1.3612665e-09
    Average linear momentum         = (8.394567467e-24 -2.604123641e-24 5.416753063e-24)
   |Average linear momentum|        = 1.032431289e-23
    Average linear kinetic energy   = 1.298704509e-20
    Average internal energy         = 4.461753064e-21
    Average total energy            = 1.744879816e-20

ExecutionTime = 4.64 s  ClockTime = 6 s

fieldAverage fieldAverage1 write:
    Calculating averages

Time = 6.3e-05

    Particles inserted              = 348
    Collisions                      = 304
    Acceptance rate                 = 0.7069767442

Cloud name: dsmc
    Number of dsmc particles        = 28271
    Number of molecules             = 2.8271e+16
    Mass in system                  = 1.35515562e-09
    Average linear momentum         = (7.947356313e-24 -2.527025414e-24 5.171154882e-24)
   |Average linear momentum|        = 9.812602745e-24
    Average linear kinetic energy   = 1.256943613e-20
    Average internal energy         = 4.462121353e-21
    Average total energy            = 1.703155748e-20

ExecutionTime = 4.69 s  ClockTime = 6 s

fieldAverage fieldAverage1 write:
    Calculating averages

Time = 6.4e-05

    Particles inserted              = 558
    Collisions                      = 275
    Acceptance rate                 = 0.6875

Cloud name: dsmc
    Number of dsmc particles        = 28353
    Number of molecules             = 2.8353e+16
    Mass in system                  = 1.35884946e-09
    Average linear momentum         = (7.4184872e-24 -2.448404706e-24 4.911158228e-24)
   |Average linear momentum|        = 9.227573521e-24
    Average linear kinetic energy   = 1.212947991e-20
    Average internal energy         = 4.45183693e-21
    Average total energy            = 1.658131684e-20

ExecutionTime = 4.74 s  ClockTime = 6 s

fieldAverage fieldAverage1 write:
    Calculating averages

Time = 6.5e-05

    Particles inserted              = 591
    Collisions                      = 281
    Acceptance rate                 = 0.6870415648

Cloud name: dsmc
    Number of dsmc particles        = 28474
    Number of molecules             = 2.8474e+16
    Mass in system                  = 1.36453554e-09
    Average linear momentum         = (6.865483936e-24 -2.342695298e-24 4.614369635e-24)
   |Average linear momentum|        = 8.597412289e-24
    Average linear kinetic energy   = 1.169955744e-20
    Average internal energy         = 4.436329544e-21
    Average total energy            = 1.613588698e-20

ExecutionTime = 4.78 s  ClockTime = 6 s

fieldAverage fieldAverage1 write:
    Calculating averages

Time = 6.6e-05

    Particles inserted              = 558
    Collisions                      = 282
    Acceptance rate                 = 0.7067669173

Cloud name: dsmc
    Number of dsmc particles        = 28581
    Number of molecules             = 2.8581e+16
    Mass in system                  = 1.36974936e-09
    Average linear momentum         = (6.423139548e-24 -2.233229815e-24 4.341360402e-24)
   |Average linear momentum|        = 8.067927069e-24
    Average linear kinetic energy   = 1.132911209e-20
    Average internal energy         = 4.431292063e-21
    Average total energy            = 1.576040415e-20

ExecutionTime = 4.82 s  ClockTime = 6 s

fieldAverage fieldAverage1 write:
    Calculating averages

Time = 6.7e-05

    Particles inserted              = 450
    Collisions                      = 297
    Acceptance rate                 = 0.7297297297

Cloud name: dsmc
    Number of dsmc particles        = 28616
    Number of molecules             = 2.8616e+16
    Mass in system                  = 1.37174758e-09
    Average linear momentum         = (6.055732011e-24 -2.176145983e-24 4.105305636e-24)
   |Average linear momentum|        = 7.632891713e-24
    Average linear kinetic energy   = 1.099601597e-20
    Average internal energy         = 4.434176896e-21
    Average total energy            = 1.543019287e-20

ExecutionTime = 4.86 s  ClockTime = 6 s

fieldAverage fieldAverage1 write:
    Calculating averages

Time = 6.8e-05

    Particles inserted              = 519
    Collisions                      = 298
    Acceptance rate                 = 0.7321867322

Cloud name: dsmc
    Number of dsmc particles        = 28757
    Number of molecules             = 2.8757e+16
    Mass in system                  = 1.37870128e-09
    Average linear momentum         = (5.706047492e-24 -2.187099718e-24 3.948174608e-24)
   |Average linear momentum|        = 7.2753327e-24
    Average linear kinetic energy   = 1.072428917e-20
    Average internal energy         = 4.424874224e-21
    Average total energy            = 1.51491634e-20

ExecutionTime = 4.93 s  ClockTime = 7 s

fieldAverage fieldAverage1 write:
    Calculating averages

Time = 6.9e-05

    Particles inserted              = 648
    Collisions                      = 287
    Acceptance rate                 = 0.7034313725

Cloud name: dsmc
    Number of dsmc particles        = 28999
    Number of molecules             = 2.8999e+16
    Mass in system                  = 1.39048388e-09
    Average linear momentum         = (5.300912165e-24 -2.085859872e-24 3.70949506e-24)
   |Average linear momentum|        = 6.797855161e-24
    Average linear kinetic energy   = 1.043891475e-20
    Average internal energy         = 4.404902753e-21
    Average total energy            = 1.48438175e-20

ExecutionTime = 4.96 s  ClockTime = 7 s

fieldAverage fieldAverage1 write:
    Calculating averages

Time = 7e-05

    Particles inserted              = 656
    Collisions                      = 294
    Acceptance rate                 = 0.7084337349

Cloud name: dsmc
    Number of dsmc particles        = 29277
    Number of molecules             = 2.9277e+16
    Mass in system                  = 1.40396034e-09
    Average linear momentum         = (4.943865438e-24 -1.914349629e-24 3.446477175e-24)
   |Average linear momentum|        = 6.323349183e-24
    Average linear kinetic energy   = 1.020319991e-20
    Average internal energy         = 4.401033552e-21
    Average total energy            = 1.460423346e-20

ExecutionTime = 5 s  ClockTime = 7 s

fieldAverage fieldAverage1 write:
    Calculating averages

Time = 7.1e-05

    Particles inserted              = 612
    Collisions                      = 296
    Acceptance rate                 = 0.68997669

Cloud name: dsmc
    Number of dsmc particles        = 29534
    Number of molecules             = 2.9534e+16
    Mass in system                  = 1.4168244e-09
    Average linear momentum         = (4.672652893e-24 -1.80666771e-24 3.226353233e-24)
   |Average linear momentum|        = 5.958782465e-24
    Average linear kinetic energy   = 9.991241612e-21
    Average internal energy         = 4.390181989e-21
    Average total energy            = 1.43814236e-20

ExecutionTime = 5.05 s  ClockTime = 7 s

fieldAverage fieldAverage1 write:
    Calculating averages

Time = 7.2e-05

    Particles inserted              = 477
    Collisions                      = 258
    Acceptance rate                 = 0.6736292428

Cloud name: dsmc
    Number of dsmc particles        = 29652
    Number of molecules             = 2.9652e+16
    Mass in system                  = 1.42282776e-09
    Average linear momentum         = (4.449337609e-24 -1.740453435e-24 3.083900211e-24)
   |Average linear momentum|        = 5.686494863e-24
    Average linear kinetic energy   = 9.789691861e-21
    Average internal energy         = 4.383984945e-21
    Average total energy            = 1.417367681e-20

ExecutionTime = 5.11 s  ClockTime = 7 s

fieldAverage fieldAverage1 write:
    Calculating averages

Time = 7.3e-05

    Particles inserted              = 566
    Collisions                      = 302
    Acceptance rate                 = 0.7347931873

Cloud name: dsmc
    Number of dsmc particles        = 29858
    Number of molecules             = 2.9858e+16
    Mass in system                  = 1.43277086e-09
    Average linear momentum         = (4.154943362e-24 -1.669809537e-24 2.920362518e-24)
   |Average linear momentum|        = 5.346057938e-24
    Average linear kinetic energy   = 9.606020846e-21
    Average internal energy         = 4.377721997e-21
    Average total energy            = 1.398374284e-20

ExecutionTime = 5.15 s  ClockTime = 7 s

fieldAverage fieldAverage1 write:
    Calculating averages

Time = 7.4e-05

    Particles inserted              = 546
    Collisions                      = 291
    Acceptance rate                 = 0.6961722488

Cloud name: dsmc
    Number of dsmc particles        = 30075
    Number of molecules             = 3.0075e+16
    Mass in system                  = 1.44309306e-09
    Average linear momentum         = (3.855943445e-24 -1.559298043e-24 2.739447594e-24)
   |Average linear momentum|        = 4.980389881e-24
    Average linear kinetic energy   = 9.427019785e-21
    Average internal energy         = 4.372912067e-21
    Average total energy            = 1.379993185e-20

ExecutionTime = 5.19 s  ClockTime = 7 s

fieldAverage fieldAverage1 write:
    Calculating averages

Time = 7.5e-05

    Particles inserted              = 492
    Collisions                      = 277
    Acceptance rate                 = 0.6805896806

Cloud name: dsmc
    Number of dsmc particles        = 30245
    Number of molecules             = 3.0245e+16
    Mass in system                  = 1.4509782e-09
    Average linear momentum         = (3.636534192e-24 -1.44529449e-24 2.562597457e-24)
   |Average linear momentum|        = 4.677623629e-24
    Average linear kinetic energy   = 9.268722084e-21
    Average internal energy         = 4.372611759e-21
    Average total energy            = 1.364133384e-20

ExecutionTime = 5.26 s  ClockTime = 7 s

fieldAverage fieldAverage1 write:
    Calculating averages

Time = 7.6e-05

    Particles inserted              = 454
    Collisions                      = 321
    Acceptance rate                 = 0.697826087

Cloud name: dsmc
    Number of dsmc particles        = 30369
    Number of molecules             = 3.0369e+16
    Mass in system                  = 1.45663166e-09
    Average linear momentum         = (3.441336503e-24 -1.428142177e-24 2.453403547e-24)
   |Average linear momentum|        = 4.461118242e-24
    Average linear kinetic energy   = 9.131395269e-21
    Average internal energy         = 4.363101241e-21
    Average total energy            = 1.349449651e-20

ExecutionTime = 5.33 s  ClockTime = 7 s

fieldAverage fieldAverage1 write:
    Calculating averages

Time = 7.7e-05

    Particles inserted              = 407
    Collisions                      = 278
    Acceptance rate                 = 0.6510538642

Cloud name: dsmc
    Number of dsmc particles        = 30468
    Number of molecules             = 3.0468e+16
    Mass in system                  = 1.46101008e-09
    Average linear momentum         = (3.288089365e-24 -1.426266659e-24 2.398800292e-24)
   |Average linear momentum|        = 4.312773017e-24
    Average linear kinetic energy   = 9.016908144e-21
    Average internal energy         = 4.353084501e-21
    Average total energy            = 1.336999264e-20

ExecutionTime = 5.37 s  ClockTime = 7 s

fieldAverage fieldAverage1 write:
    Calculating averages

Time = 7.8e-05

    Particles inserted              = 457
    Collisions                      = 281
    Acceptance rate                 = 0.7168367347

Cloud name: dsmc
    Number of dsmc particles        = 30650
    Number of molecules             = 3.065e+16
    Mass in system                  = 1.46937378e-09
    Average linear momentum         = (3.08719108e-24 -1.368644732e-24 2.317249376e-24)
   |Average linear momentum|        = 4.095556352e-24
    Average linear kinetic energy   = 8.917357724e-21
    Average internal energy         = 4.350997685e-21
    Average total energy            = 1.326835541e-20

[...]
   |Average linear momentum|        = 6.60036695e-25
    Average linear kinetic energy   = 6.18764623e-21
    Average internal energy         = 4.10899996e-21
    Average total energy            = 1.029664619e-20

ExecutionTime = 310.43 s  ClockTime = 316 s

fieldAverage fieldAverage1 write:
    Calculating averages

Time = 0.002831

    Particles inserted              = 598
    Collisions                      = 1130
    Acceptance rate                 = 0.5913134485

Cloud name: dsmc
    Number of dsmc particles        = 63187
    Number of molecules             = 6.3187e+16
    Mass in system                  = 3.02898218e-09
    Average linear momentum         = (2.622116335e-25 -4.285561883e-25 4.166943441e-25)
   |Average linear momentum|        = 6.527246921e-25
    Average linear kinetic energy   = 6.190136962e-21
    Average internal energy         = 4.111634292e-21
    Average total energy            = 1.030177125e-20

ExecutionTime = 310.52 s  ClockTime = 317 s

fieldAverage fieldAverage1 write:
    Calculating averages

Time = 0.002832

    Particles inserted              = 331
    Collisions                      = 1107
    Acceptance rate                 = 0.5679835813

Cloud name: dsmc
    Number of dsmc particles        = 62947
    Number of molecules             = 6.2947e+16
    Mass in system                  = 3.0176302e-09
    Average linear momentum         = (2.612500042e-25 -4.201338119e-25 4.194893584e-25)
   |Average linear momentum|        = 6.486411229e-25
    Average linear kinetic energy   = 6.184798973e-21
    Average internal energy         = 4.10844771e-21
    Average total energy            = 1.029324668e-20

ExecutionTime = 310.61 s  ClockTime = 317 s

fieldAverage fieldAverage1 write:
    Calculating averages

Time = 0.002833

    Particles inserted              = 363
    Collisions                      = 1018
    Acceptance rate                 = 0.5520607375

Cloud name: dsmc
    Number of dsmc particles        = 62755
    Number of molecules             = 6.2755e+16
    Mass in system                  = 3.0086691e-09
    Average linear momentum         = (2.669820966e-25 -4.184930829e-25 4.21807118e-25)
   |Average linear momentum|        = 6.514116557e-25
    Average linear kinetic energy   = 6.181255095e-21
    Average internal energy         = 4.110999447e-21
    Average total energy            = 1.029225454e-20

ExecutionTime = 310.69 s  ClockTime = 317 s

fieldAverage fieldAverage1 write:
    Calculating averages

Time = 0.002834

    Particles inserted              = 686
    Collisions                      = 1101
    Acceptance rate                 = 0.5782563025

Cloud name: dsmc
    Number of dsmc particles        = 62895
    Number of molecules             = 6.2895e+16
    Mass in system                  = 3.0155763e-09
    Average linear momentum         = (2.68162905e-25 -4.056273787e-25 4.098966139e-25)
   |Average linear momentum|        = 6.359718138e-25
    Average linear kinetic energy   = 6.185412604e-21
    Average internal energy         = 4.110583355e-21
    Average total energy            = 1.029599596e-20

ExecutionTime = 310.78 s  ClockTime = 317 s

fieldAverage fieldAverage1 write:
    Calculating averages

Time = 0.002835

    Particles inserted              = 841
    Collisions                      = 1051
    Acceptance rate                 = 0.5617316943

Cloud name: dsmc
    Number of dsmc particles        = 63222
    Number of molecules             = 6.3222e+16
    Mass in system                  = 3.03156958e-09
    Average linear momentum         = (2.649110254e-25 -3.733126363e-25 3.931646915e-25)
   |Average linear momentum|        = 6.034224478e-25
    Average linear kinetic energy   = 6.18696868e-21
    Average internal energy         = 4.11172479e-21
    Average total energy            = 1.029869347e-20

ExecutionTime = 310.93 s  ClockTime = 317 s

fieldAverage fieldAverage1 write:
    Calculating averages

Time = 0.002836

    Particles inserted              = 576
    Collisions                      = 1137
    Acceptance rate                 = 0.5866873065

Cloud name: dsmc
    Number of dsmc particles        = 63275
    Number of molecules             = 6.3275e+16
    Mass in system                  = 3.03496088e-09
    Average linear momentum         = (2.655785865e-25 -3.806449173e-25 3.874459288e-25)
   |Average linear momentum|        = 6.045964658e-25
    Average linear kinetic energy   = 6.187399687e-21
    Average internal energy         = 4.113397354e-21
    Average total energy            = 1.030079704e-20

ExecutionTime = 311.03 s  ClockTime = 317 s

fieldAverage fieldAverage1 write:
    Calculating averages

Time = 0.002837

    Particles inserted              = 431
    Collisions                      = 1070
    Acceptance rate                 = 0.5544041451

Cloud name: dsmc
    Number of dsmc particles        = 63191
    Number of molecules             = 6.3191e+16
    Mass in system                  = 3.03194196e-09
    Average linear momentum         = (2.560306679e-25 -3.827461816e-25 3.89497922e-25)
   |Average linear momentum|        = 6.031210274e-25
    Average linear kinetic energy   = 6.179948135e-21
    Average internal energy         = 4.114651729e-21
    Average total energy            = 1.029459986e-20

ExecutionTime = 311.14 s  ClockTime = 317 s

fieldAverage fieldAverage1 write:
    Calculating averages

Time = 0.002838

    Particles inserted              = 670
    Collisions                      = 1108
    Acceptance rate                 = 0.5723140496

Cloud name: dsmc
    Number of dsmc particles        = 63331
    Number of molecules             = 6.3331e+16
    Mass in system                  = 3.03911396e-09
    Average linear momentum         = (2.899991069e-25 -3.948580771e-25 3.906242651e-25)
   |Average linear momentum|        = 6.265777681e-25
    Average linear kinetic energy   = 6.186468778e-21
    Average internal energy         = 4.117632102e-21
    Average total energy            = 1.030410088e-20

ExecutionTime = 311.25 s  ClockTime = 317 s

fieldAverage fieldAverage1 write:
    Calculating averages

Time = 0.002839

    Particles inserted              = 791
    Collisions                      = 1129
    Acceptance rate                 = 0.5687657431

Cloud name: dsmc
    Number of dsmc particles        = 63589
    Number of molecules             = 6.3589e+16
    Mass in system                  = 3.05161408e-09
    Average linear momentum         = (2.917165334e-25 -4.050988807e-25 4.075191117e-25)
   |Average linear momentum|        = 6.444187035e-25
    Average linear kinetic energy   = 6.200001808e-21
    Average internal energy         = 4.121611284e-21
    Average total energy            = 1.032161309e-20

ExecutionTime = 311.36 s  ClockTime = 317 s

fieldAverage fieldAverage1 write:
    Calculating averages

Time = 0.00284

    Particles inserted              = 558
    Collisions                      = 1071
    Acceptance rate                 = 0.5660676533

Cloud name: dsmc
    Number of dsmc particles        = 63595
    Number of molecules             = 6.3595e+16
    Mass in system                  = 3.05202548e-09
    Average linear momentum         = (2.932272706e-25 -3.958337011e-25 4.124738896e-25)
   |Average linear momentum|        = 6.424961173e-25
    Average linear kinetic energy   = 6.198043326e-21
    Average internal energy         = 4.12101985e-21
    Average total energy            = 1.031906318e-20

ExecutionTime = 311.5 s  ClockTime = 318 s

fieldAverage fieldAverage1 write:
    Calculating averages

Time = 0.002841

    Particles inserted              = 311
    Collisions                      = 1120
    Acceptance rate                 = 0.5800103573

Cloud name: dsmc
    Number of dsmc particles        = 63442
    Number of molecules             = 6.3442e+16
    Mass in system                  = 3.0447521e-09
    Average linear momentum         = (2.927414563e-25 -4.096549453e-25 4.124710853e-25)
   |Average linear momentum|        = 6.5088181e-25
    Average linear kinetic energy   = 6.19529575e-21
    Average internal energy         = 4.117793272e-21
    Average total energy            = 1.031308902e-20

ExecutionTime = 311.66 s  ClockTime = 318 s

fieldAverage fieldAverage1 write:
    Calculating averages

Time = 0.002842

    Particles inserted              = 413
    Collisions                      = 1107
    Acceptance rate                 = 0.5765625

Cloud name: dsmc
    Number of dsmc particles        = 63386
    Number of molecules             = 6.3386e+16
    Mass in system                  = 3.0418502e-09
    Average linear momentum         = (3.083050172e-25 -4.28508803e-25 4.296808548e-25)
   |Average linear momentum|        = 6.806595441e-25
    Average linear kinetic energy   = 6.195834884e-21
    Average internal energy         = 4.118283006e-21
    Average total energy            = 1.031411789e-20

ExecutionTime = 311.77 s  ClockTime = 318 s

fieldAverage fieldAverage1 write:
    Calculating averages

Time = 0.002843

    Particles inserted              = 584
    Collisions                      = 1096
    Acceptance rate                 = 0.5652398143

Cloud name: dsmc
    Number of dsmc particles        = 63459
    Number of molecules             = 6.3459e+16
    Mass in system                  = 3.04468862e-09
    Average linear momentum         = (3.16780434e-25 -4.352371976e-25 4.44356898e-25)
   |Average linear momentum|        = 6.980217147e-25
    Average linear kinetic energy   = 6.194444335e-21
    Average internal energy         = 4.119089872e-21
    Average total energy            = 1.031353421e-20

ExecutionTime = 311.88 s  ClockTime = 318 s

fieldAverage fieldAverage1 write:
    Calculating averages

Time = 0.002844

    Particles inserted              = 520
    Collisions                      = 1115
    Acceptance rate                 = 0.5780196993

Cloud name: dsmc
    Number of dsmc particles        = 63457
    Number of molecules             = 6.3457e+16
    Mass in system                  = 3.04391376e-09
    Average linear momentum         = (3.071149718e-25 -4.280808221e-25 4.435250338e-25)
   |Average linear momentum|        = 6.886851616e-25
    Average linear kinetic energy   = 6.195181754e-21
    Average internal energy         = 4.115358987e-21
    Average total energy            = 1.031054074e-20

ExecutionTime = 312.02 s  ClockTime = 318 s

fieldAverage fieldAverage1 write:
    Calculating averages

Time = 0.002845

    Particles inserted              = 266
    Collisions                      = 1092
    Acceptance rate                 = 0.5827107791

Cloud name: dsmc
    Number of dsmc particles        = 63220
    Number of molecules             = 6.322e+16
    Mass in system                  = 3.0321452e-09
    Average linear momentum         = (2.862045069e-25 -4.133400649e-25 4.299976878e-25)
   |Average linear momentum|        = 6.615595517e-25
    Average linear kinetic energy   = 6.184932029e-21
    Average internal energy         = 4.114200024e-21
    Average total energy            = 1.029913205e-20

ExecutionTime = 312.13 s  ClockTime = 318 s

fieldAverage fieldAverage1 write:
    Calculating averages

Time = 0.002846

    Particles inserted              = 324
    Collisions                      = 1097
    Acceptance rate                 = 0.5707596254

Cloud name: dsmc
    Number of dsmc particles        = 62971
    Number of molecules             = 6.2971e+16
    Mass in system                  = 3.01975244e-09
    Average linear momentum         = (3.006845686e-25 -4.23231405e-25 4.378520162e-25)
   |Average linear momentum|        = 6.791541946e-25
    Average linear kinetic energy   = 6.179307984e-21
    Average internal energy         = 4.116363022e-21
    Average total energy            = 1.029567101e-20

ExecutionTime = 312.24 s  ClockTime = 318 s

fieldAverage fieldAverage1 write:
    Calculating averages

Time = 0.002847

    Particles inserted              = 484
    Collisions                      = 1119
    Acceptance rate                 = 0.5840292276

Cloud name: dsmc
    Number of dsmc particles        = 62930
    Number of molecules             = 6.293e+16
    Mass in system                  = 3.01709788e-09
    Average linear momentum         = (3.096847051e-25 -4.348712793e-25 4.563171573e-25)
   |Average linear momentum|        = 7.023126043e-25
    Average linear kinetic energy   = 6.175466907e-21
    Average internal energy         = 4.115420046e-21
    Average total energy            = 1.029088695e-20

ExecutionTime = 312.33 s  ClockTime = 318 s

fieldAverage fieldAverage1 write:
    Calculating averages

Time = 0.002848

    Particles inserted              = 593
    Collisions                      = 1071
    Acceptance rate                 = 0.5699840341

Cloud name: dsmc
    Number of dsmc particles        = 62999
    Number of molecules             = 6.2999e+16
    Mass in system                  = 3.01994228e-09
    Average linear momentum         = (2.98380383e-25 -4.32560205e-25 4.304216174e-25)
   |Average linear momentum|        = 6.792657453e-25
    Average linear kinetic energy   = 6.178746125e-21
    Average internal energy         = 4.114737887e-21
    Average total energy            = 1.029348401e-20

ExecutionTime = 312.44 s  ClockTime = 319 s

fieldAverage fieldAverage1 write:
    Calculating averages

Time = 0.002849

    Particles inserted              = 448
    Collisions                      = 1087
    Acceptance rate                 = 0.5673277662

Cloud name: dsmc
    Number of dsmc particles        = 62890
    Number of molecules             = 6.289e+16
    Mass in system                  = 3.0147149e-09
    Average linear momentum         = (2.734793251e-25 -4.04608911e-25 3.967272562e-25)
   |Average linear momentum|        = 6.291993547e-25
    Average linear kinetic energy   = 6.172641451e-21
    Average internal energy         = 4.119722599e-21
    Average total energy            = 1.029236405e-20

ExecutionTime = 312.55 s  ClockTime = 319 s

fieldAverage fieldAverage1 write:
    Calculating averages

Time = 0.00285

    Particles inserted              = 488
    Collisions                      = 1068
    Acceptance rate                 = 0.5621052632

Cloud name: dsmc
    Number of dsmc particles        = 62870
    Number of molecules             = 6.287e+16
    Mass in system                  = 3.01422182e-09
    Average linear momentum         = (2.8171045e-25 -4.003574953e-25 3.823882177e-25)
   |Average linear momentum|        = 6.211824617e-25
    Average linear kinetic energy   = 6.172472338e-21
    Average internal energy         = 4.119338025e-21
    Average total energy            = 1.029181036e-20

ExecutionTime = 312.66 s  ClockTime = 319 s

fieldAverage fieldAverage1 write:
    Calculating averages

Time = 0.002851

    Particles inserted              = 613
    Collisions                      = 1055
    Acceptance rate                 = 0.5602761551

Cloud name: dsmc
    Number of dsmc particles        = 62963
    Number of molecules             = 6.2963e+16
    Mass in system                  = 3.0192679e-09
    Average linear momentum         = (3.033474879e-25 -4.108178728e-25 3.9920009e-25)
   |Average linear momentum|        = 6.481911253e-25
    Average linear kinetic energy   = 6.179596361e-21
    Average internal energy         = 4.118720246e-21
    Average total energy            = 1.029831661e-20

ExecutionTime = 312.78 s  ClockTime = 319 s

fieldAverage fieldAverage1 write:
    Calculating averages

Time = 0.002852

    Particles inserted              = 799
    Collisions                      = 1110
    Acceptance rate                 = 0.5663265306

Cloud name: dsmc
    Number of dsmc particles        = 63258
    Number of molecules             = 6.3258e+16
    Mass in system                  = 3.0342101e-09
    Average linear momentum         = (3.077870591e-25 -4.127278398e-25 4.198172999e-25)
   |Average linear momentum|        = 6.643219918e-25
    Average linear kinetic energy   = 6.1823233e-21
    Average internal energy         = 4.116491768e-21
    Average total energy            = 1.029881507e-20

ExecutionTime = 312.89 s  ClockTime = 319 s

fieldAverage fieldAverage1 write:
    Calculating averages

Time = 0.002853

    Particles inserted              = 680
    Collisions                      = 1076
    Acceptance rate                 = 0.5615866388

Cloud name: dsmc
    Number of dsmc particles        = 63415
    Number of molecules             = 6.3415e+16
    Mass in system                  = 3.04247712e-09
    Average linear momentum         = (2.820645609e-25 -3.907934035e-25 4.054186824e-25)
   |Average linear momentum|        = 6.297969583e-25
    Average linear kinetic energy   = 6.187725514e-21
    Average internal energy         = 4.12072795e-21
    Average total energy            = 1.030845346e-20

ExecutionTime = 312.99 s  ClockTime = 319 s

fieldAverage fieldAverage1 write:
    Calculating averages

Time = 0.002854

    Particles inserted              = 595
    Collisions                      = 1050
    Acceptance rate                 = 0.5429162358

Cloud name: dsmc
    Number of dsmc particles        = 63500
    Number of molecules             = 6.35e+16
    Mass in system                  = 3.04726374e-09
    Average linear momentum         = (2.606987278e-25 -3.920138334e-25 3.940094572e-25)
   |Average linear momentum|        = 6.139072606e-25
    Average linear kinetic energy   = 6.188329623e-21
    Average internal energy         = 4.116055694e-21
    Average total energy            = 1.030438532e-20

ExecutionTime = 313.1 s  ClockTime = 319 s

fieldAverage fieldAverage1 write:
    Calculating averages

Time = 0.002855

    Particles inserted              = 541
    Collisions                      = 1063
    Acceptance rate                 = 0.5615425251

Cloud name: dsmc
    Number of dsmc particles        = 63542
    Number of molecules             = 6.3542e+16
    Mass in system                  = 3.04956098e-09
    Average linear momentum         = (2.793386879e-25 -4.174027832e-25 4.060579679e-25)
   |Average linear momentum|        = 6.458624151e-25
    Average linear kinetic energy   = 6.193463911e-21
    Average internal energy         = 4.115527897e-21
    Average total energy            = 1.030899181e-20

ExecutionTime = 313.22 s  ClockTime = 319 s

fieldAverage fieldAverage1 write:
    Calculating averages

Time = 0.002856

    Particles inserted              = 602
    Collisions                      = 1114
    Acceptance rate                 = 0.5564435564

Cloud name: dsmc
    Number of dsmc particles        = 63637
    Number of molecules             = 6.3637e+16
    Mass in system                  = 3.05423004e-09
    Average linear momentum         = (3.052520548e-25 -4.334797028e-25 4.318859216e-25)
   |Average linear momentum|        = 6.838193613e-25
    Average linear kinetic energy   = 6.194721651e-21
    Average internal energy         = 4.11766239e-21
    Average total energy            = 1.031238404e-20

ExecutionTime = 313.31 s  ClockTime = 319 s

fieldAverage fieldAverage1 write:
    Calculating averages

Time = 0.002857

    Particles inserted              = 520
    Collisions                      = 1126
    Acceptance rate                 = 0.5855434217

Cloud name: dsmc
    Number of dsmc particles        = 63599
    Number of molecules             = 6.3599e+16
    Mass in system                  = 3.05223796e-09
    Average linear momentum         = (3.094273414e-25 -4.063790854e-25 4.189873934e-25)
   |Average linear momentum|        = 6.606358123e-25
    Average linear kinetic energy   = 6.19932946e-21
    Average internal energy         = 4.114348735e-21
    Average total energy            = 1.031367819e-20

ExecutionTime = 313.45 s  ClockTime = 320 s

fieldAverage fieldAverage1 write:
    Calculating averages

Time = 0.002858

    Particles inserted              = 460
