./Allrun: 93: ./Allrun: dsmcFoamV1: not found
