/*---------------------------------------------------------------------------*\
  =========                 |
  \\      /  F ield         | OpenFOAM: The Open Source CFD Toolbox
   \\    /   O peration     | Website:  https://openfoam.org
    \\  /    A nd           | Version:  7
     \\/     M anipulation  |
\*---------------------------------------------------------------------------*/
Build  : 7-6ef561967074
Exec   : dsmcFoam
Date   : Jan 28 2020
Time   : 16:48:07
Host   : "DESKTOP-KF81SG4"
PID    : 4130
I/O    : uncollated
Case   : /home/anthonygay1812/OpenFOAM/Working/dsmcShockTube
nProcs : 1
sigFpe : Enabling floating point exception trapping (FOAM_SIGFPE).
fileModificationChecking : Monitoring run-time modified files using timeStampMaster (fileModificationSkew 10)
allowSystemOperations : Allowing user-supplied system call operations

// * * * * * * * * * * * * * * * * * * * * * * * * * * * * * * * * * * * * * //
Create time

Create mesh for time = 0


Constructing dsmcCloud 
Selecting BinaryCollisionModel LarsenBorgnakkeVariableHardSphere
Selecting WallInteractionModel SpecularReflection
Selecting InflowBoundaryModel none

Constructing constant properties for
    N2

Starting time loop

fieldAverage fieldAverage1:
    Starting averaging at time 0

Time = 1e-06

    No collisions
Cloud name: dsmc
    Number of dsmc particles        = 3337
    Number of molecules             = 3.337e+21
    Mass in system                  = 0.000155171
    Average linear momentum         = (2.26386e-25 -9.62669e-26 2.35264e-25)
   |Average linear momentum|        = 3.40392e-25
    Average linear kinetic energy   = 5.23752e-21
    Average internal energy         = 3.58885e-21
    Average total energy            = 8.82637e-21

ExecutionTime = 0.32 s  ClockTime = 2 s

    Reading/initialising field rhoNMean
    Reading/initialising field rhoMMean
    Reading/initialising field dsmcRhoNMean
    Reading/initialising field momentumMean
    Reading/initialising field linearKEMean
    Reading/initialising field internalEMean
    Reading/initialising field iDofMean
    Reading/initialising field qMean
    Reading/initialising field fDMean
fieldAverage fieldAverage1 write:
    Calculating averages

Time = 2e-06

    No collisions
Cloud name: dsmc
    Number of dsmc particles        = 3337
    Number of molecules             = 3.337e+21
    Mass in system                  = 0.000155171
    Average linear momentum         = (2.26386e-25 -9.62669e-26 2.35264e-25)
   |Average linear momentum|        = 3.40392e-25
    Average linear kinetic energy   = 5.23752e-21
    Average internal energy         = 3.58885e-21
    Average total energy            = 8.82637e-21

ExecutionTime = 0.32 s  ClockTime = 2 s

fieldAverage fieldAverage1 write:
    Calculating averages

Time = 3e-06

    No collisions
Cloud name: dsmc
    Number of dsmc particles        = 3337
    Number of molecules             = 3.337e+21
    Mass in system                  = 0.000155171
    Average linear momentum         = (2.26386e-25 -9.62669e-26 2.35264e-25)
   |Average linear momentum|        = 3.40392e-25
    Average linear kinetic energy   = 5.23752e-21
    Average internal energy         = 3.58885e-21
    Average total energy            = 8.82637e-21

ExecutionTime = 0.32 s  ClockTime = 2 s

fieldAverage fieldAverage1 write:
    Calculating averages

Time = 4e-06

    No collisions
Cloud name: dsmc
    Number of dsmc particles        = 3337
    Number of molecules             = 3.337e+21
    Mass in system                  = 0.000155171
    Average linear momentum         = (2.26386e-25 -9.62669e-26 2.35264e-25)
   |Average linear momentum|        = 3.40392e-25
    Average linear kinetic energy   = 5.23752e-21
    Average internal energy         = 3.58885e-21
    Average total energy            = 8.82637e-21

ExecutionTime = 0.32 s  ClockTime = 2 s

fieldAverage fieldAverage1 write:
    Calculating averages

Time = 5e-06

    No collisions
Cloud name: dsmc
    Number of dsmc particles        = 3337
    Number of molecules             = 3.337e+21
    Mass in system                  = 0.000155171
    Average linear momentum         = (2.26386e-25 -9.62669e-26 2.35264e-25)
   |Average linear momentum|        = 3.40392e-25
    Average linear kinetic energy   = 5.23752e-21
    Average internal energy         = 3.58885e-21
    Average total energy            = 8.82637e-21

ExecutionTime = 0.32 s  ClockTime = 2 s

fieldAverage fieldAverage1 write:
    Calculating averages

Time = 6e-06

    No collisions
Cloud name: dsmc
    Number of dsmc particles        = 3337
    Number of molecules             = 3.337e+21
    Mass in system                  = 0.000155171
    Average linear momentum         = (2.26386e-25 -9.62669e-26 2.35264e-25)
   |Average linear momentum|        = 3.40392e-25
    Average linear kinetic energy   = 5.23752e-21
    Average internal energy         = 3.58885e-21
    Average total energy            = 8.82637e-21

ExecutionTime = 0.34 s  ClockTime = 2 s

fieldAverage fieldAverage1 write:
    Calculating averages

Time = 7e-06

    No collisions
Cloud name: dsmc
    Number of dsmc particles        = 3337
    Number of molecules             = 3.337e+21
    Mass in system                  = 0.000155171
    Average linear momentum         = (2.26386e-25 -9.62669e-26 2.35264e-25)
   |Average linear momentum|        = 3.40392e-25
    Average linear kinetic energy   = 5.23752e-21
    Average internal energy         = 3.58885e-21
    Average total energy            = 8.82637e-21

ExecutionTime = 0.34 s  ClockTime = 2 s

fieldAverage fieldAverage1 write:
    Calculating averages

Time = 8e-06

    No collisions
Cloud name: dsmc
    Number of dsmc particles        = 3337
    Number of molecules             = 3.337e+21
    Mass in system                  = 0.000155171
    Average linear momentum         = (2.26386e-25 -9.62669e-26 2.35264e-25)
   |Average linear momentum|        = 3.40392e-25
    Average linear kinetic energy   = 5.23752e-21
    Average internal energy         = 3.58885e-21
    Average total energy            = 8.82637e-21

ExecutionTime = 0.34 s  ClockTime = 2 s

fieldAverage fieldAverage1 write:
    Calculating averages

Time = 9e-06

    No collisions
Cloud name: dsmc
    Number of dsmc particles        = 3337
    Number of molecules             = 3.337e+21
    Mass in system                  = 0.000155171
    Average linear momentum         = (2.26386e-25 -9.62669e-26 2.35264e-25)
   |Average linear momentum|        = 3.40392e-25
    Average linear kinetic energy   = 5.23752e-21
    Average internal energy         = 3.58885e-21
    Average total energy            = 8.82637e-21

ExecutionTime = 0.34 s  ClockTime = 2 s

fieldAverage fieldAverage1 write:
    Calculating averages

Time = 1e-05

    No collisions
Cloud name: dsmc
    Number of dsmc particles        = 3337
    Number of molecules             = 3.337e+21
    Mass in system                  = 0.000155171
    Average linear momentum         = (2.26386e-25 -9.62669e-26 2.35264e-25)
   |Average linear momentum|        = 3.40392e-25
    Average linear kinetic energy   = 5.23752e-21
    Average internal energy         = 3.58885e-21
    Average total energy            = 8.82637e-21

ExecutionTime = 0.34 s  ClockTime = 2 s

fieldAverage fieldAverage1 write:
    Calculating averages

Time = 1.1e-05

    No collisions
Cloud name: dsmc
    Number of dsmc particles        = 3337
    Number of molecules             = 3.337e+21
    Mass in system                  = 0.000155171
    Average linear momentum         = (2.26386e-25 -9.62669e-26 2.35264e-25)
   |Average linear momentum|        = 3.40392e-25
    Average linear kinetic energy   = 5.23752e-21
    Average internal energy         = 3.58885e-21
    Average total energy            = 8.82637e-21

ExecutionTime = 0.34 s  ClockTime = 2 s

fieldAverage fieldAverage1 write:
    Calculating averages

Time = 1.2e-05

    No collisions
Cloud name: dsmc
    Number of dsmc particles        = 3337
    Number of molecules             = 3.337e+21
    Mass in system                  = 0.000155171
    Average linear momentum         = (2.26386e-25 -9.62669e-26 2.35264e-25)
   |Average linear momentum|        = 3.40392e-25
    Average linear kinetic energy   = 5.23752e-21
    Average internal energy         = 3.58885e-21
    Average total energy            = 8.82637e-21

ExecutionTime = 0.34 s  ClockTime = 2 s

fieldAverage fieldAverage1 write:
    Calculating averages

Time = 1.3e-05

    No collisions
Cloud name: dsmc
    Number of dsmc particles        = 3337
    Number of molecules             = 3.337e+21
    Mass in system                  = 0.000155171
    Average linear momentum         = (2.26386e-25 -9.62669e-26 2.35264e-25)
   |Average linear momentum|        = 3.40392e-25
    Average linear kinetic energy   = 5.23752e-21
    Average internal energy         = 3.58885e-21
    Average total energy            = 8.82637e-21

ExecutionTime = 0.34 s  ClockTime = 2 s

fieldAverage fieldAverage1 write:
    Calculating averages

Time = 1.4e-05

    No collisions
Cloud name: dsmc
    Number of dsmc particles        = 3337
    Number of molecules             = 3.337e+21
    Mass in system                  = 0.000155171
    Average linear momentum         = (2.26386e-25 -9.62669e-26 2.35264e-25)
   |Average linear momentum|        = 3.40392e-25
    Average linear kinetic energy   = 5.23752e-21
    Average internal energy         = 3.58885e-21
    Average total energy            = 8.82637e-21

ExecutionTime = 0.34 s  ClockTime = 2 s

fieldAverage fieldAverage1 write:
    Calculating averages

Time = 1.5e-05

    No collisions
Cloud name: dsmc
    Number of dsmc particles        = 3337
    Number of molecules             = 3.337e+21
    Mass in system                  = 0.000155171
    Average linear momentum         = (2.26386e-25 -9.62669e-26 2.35264e-25)
   |Average linear momentum|        = 3.40392e-25
    Average linear kinetic energy   = 5.23752e-21
    Average internal energy         = 3.58885e-21
    Average total energy            = 8.82637e-21

ExecutionTime = 0.34 s  ClockTime = 2 s

fieldAverage fieldAverage1 write:
    Calculating averages

Time = 1.6e-05

    No collisions
Cloud name: dsmc
    Number of dsmc particles        = 3337
    Number of molecules             = 3.337e+21
    Mass in system                  = 0.000155171
    Average linear momentum         = (2.26386e-25 -9.62669e-26 2.35264e-25)
   |Average linear momentum|        = 3.40392e-25
    Average linear kinetic energy   = 5.23752e-21
    Average internal energy         = 3.58885e-21
    Average total energy            = 8.82637e-21

ExecutionTime = 0.34 s  ClockTime = 2 s

fieldAverage fieldAverage1 write:
    Calculating averages

Time = 1.7e-05

    No collisions
Cloud name: dsmc
    Number of dsmc particles        = 3337
    Number of molecules             = 3.337e+21
    Mass in system                  = 0.000155171
    Average linear momentum         = (2.26386e-25 -9.62669e-26 2.35264e-25)
   |Average linear momentum|        = 3.40392e-25
    Average linear kinetic energy   = 5.23752e-21
    Average internal energy         = 3.58885e-21
    Average total energy            = 8.82637e-21

ExecutionTime = 0.34 s  ClockTime = 2 s

fieldAverage fieldAverage1 write:
    Calculating averages

Time = 1.8e-05

    No collisions
Cloud name: dsmc
    Number of dsmc particles        = 3337
    Number of molecules             = 3.337e+21
    Mass in system                  = 0.000155171
    Average linear momentum         = (2.26386e-25 -9.62669e-26 2.35264e-25)
   |Average linear momentum|        = 3.40392e-25
    Average linear kinetic energy   = 5.23752e-21
    Average internal energy         = 3.58885e-21
    Average total energy            = 8.82637e-21

ExecutionTime = 0.35 s  ClockTime = 2 s

fieldAverage fieldAverage1 write:
    Calculating averages

Time = 1.9e-05

    No collisions
Cloud name: dsmc
    Number of dsmc particles        = 3337
    Number of molecules             = 3.337e+21
    Mass in system                  = 0.000155171
    Average linear momentum         = (2.26386e-25 -9.62669e-26 2.35264e-25)
   |Average linear momentum|        = 3.40392e-25
    Average linear kinetic energy   = 5.23752e-21
    Average internal energy         = 3.58885e-21
    Average total energy            = 8.82637e-21

ExecutionTime = 0.35 s  ClockTime = 2 s

fieldAverage fieldAverage1 write:
    Calculating averages

Time = 2e-05

    No collisions
Cloud name: dsmc
    Number of dsmc particles        = 3337
    Number of molecules             = 3.337e+21
    Mass in system                  = 0.000155171
    Average linear momentum         = (2.26386e-25 -9.62669e-26 2.35264e-25)
   |Average linear momentum|        = 3.40392e-25
    Average linear kinetic energy   = 5.23752e-21
    Average internal energy         = 3.58885e-21
    Average total energy            = 8.82637e-21

ExecutionTime = 0.35 s  ClockTime = 2 s

fieldAverage fieldAverage1 write:
    Calculating averages

Time = 2.1e-05

    No collisions
Cloud name: dsmc
    Number of dsmc particles        = 3337
    Number of molecules             = 3.337e+21
    Mass in system                  = 0.000155171
    Average linear momentum         = (2.26386e-25 -9.62669e-26 2.35264e-25)
   |Average linear momentum|        = 3.40392e-25
    Average linear kinetic energy   = 5.23752e-21
    Average internal energy         = 3.58885e-21
    Average total energy            = 8.82637e-21

ExecutionTime = 0.35 s  ClockTime = 2 s

fieldAverage fieldAverage1 write:
    Calculating averages

Time = 2.2e-05

    No collisions
Cloud name: dsmc
    Number of dsmc particles        = 3336
    Number of molecules             = 3.336e+21
    Mass in system                  = 0.000155124
    Average linear momentum         = (2.36112e-25 -1.00769e-25 2.32072e-25)
   |Average linear momentum|        = 3.46064e-25
    Average linear kinetic energy   = 5.23464e-21
    Average internal energy         = 3.58709e-21
    Average total energy            = 8.82173e-21

ExecutionTime = 0.35 s  ClockTime = 2 s

fieldAverage fieldAverage1 write:
    Calculating averages

Time = 2.3e-05

    No collisions
Cloud name: dsmc
    Number of dsmc particles        = 3336
    Number of molecules             = 3.336e+21
    Mass in system                  = 0.000155124
    Average linear momentum         = (2.36112e-25 -1.00769e-25 2.32072e-25)
   |Average linear momentum|        = 3.46064e-25
    Average linear kinetic energy   = 5.23464e-21
    Average internal energy         = 3.58709e-21
    Average total energy            = 8.82173e-21

ExecutionTime = 0.35 s  ClockTime = 2 s

fieldAverage fieldAverage1 write:
    Calculating averages

Time = 2.4e-05

    No collisions
Cloud name: dsmc
    Number of dsmc particles        = 3336
    Number of molecules             = 3.336e+21
    Mass in system                  = 0.000155124
    Average linear momentum         = (2.36112e-25 -1.00769e-25 2.32072e-25)
   |Average linear momentum|        = 3.46064e-25
    Average linear kinetic energy   = 5.23464e-21
    Average internal energy         = 3.58709e-21
    Average total energy            = 8.82173e-21

ExecutionTime = 0.35 s  ClockTime = 2 s

fieldAverage fieldAverage1 write:
    Calculating averages

Time = 2.5e-05

    No collisions
Cloud name: dsmc
    Number of dsmc particles        = 3336
    Number of molecules             = 3.336e+21
    Mass in system                  = 0.000155124
    Average linear momentum         = (2.36112e-25 -1.00769e-25 2.32072e-25)
   |Average linear momentum|        = 3.46064e-25
    Average linear kinetic energy   = 5.23464e-21
    Average internal energy         = 3.58709e-21
    Average total energy            = 8.82173e-21

ExecutionTime = 0.35 s  ClockTime = 2 s

fieldAverage fieldAverage1 write:
    Calculating averages

Time = 2.6e-05

    No collisions
Cloud name: dsmc
    Number of dsmc particles        = 3335
    Number of molecules             = 3.335e+21
    Mass in system                  = 0.000155078
    Average linear momentum         = (2.44931e-25 -1.03114e-25 2.28296e-25)
   |Average linear momentum|        = 3.50346e-25
    Average linear kinetic energy   = 5.23275e-21
    Average internal energy         = 3.58784e-21
    Average total energy            = 8.82059e-21

ExecutionTime = 0.35 s  ClockTime = 2 s

fieldAverage fieldAverage1 write:
    Calculating averages

Time = 2.7e-05

    No collisions
Cloud name: dsmc
    Number of dsmc particles        = 3335
    Number of molecules             = 3.335e+21
    Mass in system                  = 0.000155078
    Average linear momentum         = (2.44931e-25 -1.03114e-25 2.28296e-25)
   |Average linear momentum|        = 3.50346e-25
    Average linear kinetic energy   = 5.23275e-21
    Average internal energy         = 3.58784e-21
    Average total energy            = 8.82059e-21

ExecutionTime = 0.35 s  ClockTime = 2 s

fieldAverage fieldAverage1 write:
    Calculating averages

Time = 2.8e-05

    No collisions
Cloud name: dsmc
    Number of dsmc particles        = 3335
    Number of molecules             = 3.335e+21
    Mass in system                  = 0.000155078
    Average linear momentum         = (2.44931e-25 -1.03114e-25 2.28296e-25)
   |Average linear momentum|        = 3.50346e-25
    Average linear kinetic energy   = 5.23275e-21
    Average internal energy         = 3.58784e-21
    Average total energy            = 8.82059e-21

ExecutionTime = 0.35 s  ClockTime = 2 s

fieldAverage fieldAverage1 write:
    Calculating averages

Time = 2.9e-05

    No collisions
Cloud name: dsmc
    Number of dsmc particles        = 3335
    Number of molecules             = 3.335e+21
    Mass in system                  = 0.000155078
    Average linear momentum         = (2.44931e-25 -1.03114e-25 2.28296e-25)
   |Average linear momentum|        = 3.50346e-25
    Average linear kinetic energy   = 5.23275e-21
    Average internal energy         = 3.58784e-21
    Average total energy            = 8.82059e-21

ExecutionTime = 0.37 s  ClockTime = 2 s

fieldAverage fieldAverage1 write:
    Calculating averages

Time = 3e-05

    No collisions
Cloud name: dsmc
    Number of dsmc particles        = 3335
    Number of molecules             = 3.335e+21
    Mass in system                  = 0.000155078
    Average linear momentum         = (2.44931e-25 -1.03114e-25 2.28296e-25)
   |Average linear momentum|        = 3.50346e-25
    Average linear kinetic energy   = 5.23275e-21
    Average internal energy         = 3.58784e-21
    Average total energy            = 8.82059e-21

ExecutionTime = 0.37 s  ClockTime = 2 s

fieldAverage fieldAverage1 write:
    Calculating averages

Time = 3.1e-05

    No collisions
Cloud name: dsmc
    Number of dsmc particles        = 3335
    Number of molecules             = 3.335e+21
    Mass in system                  = 0.000155078
    Average linear momentum         = (2.44931e-25 -1.03114e-25 2.28296e-25)
   |Average linear momentum|        = 3.50346e-25
    Average linear kinetic energy   = 5.23275e-21
    Average internal energy         = 3.58784e-21
    Average total energy            = 8.82059e-21

ExecutionTime = 0.37 s  ClockTime = 2 s

fieldAverage fieldAverage1 write:
    Calculating averages

Time = 3.2e-05

    No collisions
Cloud name: dsmc
    Number of dsmc particles        = 3335
    Number of molecules             = 3.335e+21
    Mass in system                  = 0.000155078
    Average linear momentum         = (2.44931e-25 -1.03114e-25 2.28296e-25)
   |Average linear momentum|        = 3.50346e-25
    Average linear kinetic energy   = 5.23275e-21
    Average internal energy         = 3.58784e-21
    Average total energy            = 8.82059e-21

ExecutionTime = 0.37 s  ClockTime = 2 s

fieldAverage fieldAverage1 write:
    Calculating averages

Time = 3.3e-05

    No collisions
Cloud name: dsmc
    Number of dsmc particles        = 3335
    Number of molecules             = 3.335e+21
    Mass in system                  = 0.000155078
    Average linear momentum         = (2.44931e-25 -1.03114e-25 2.28296e-25)
   |Average linear momentum|        = 3.50346e-25
    Average linear kinetic energy   = 5.23275e-21
    Average internal energy         = 3.58784e-21
    Average total energy            = 8.82059e-21

ExecutionTime = 0.37 s  ClockTime = 2 s

fieldAverage fieldAverage1 write:
    Calculating averages

Time = 3.4e-05

    No collisions
Cloud name: dsmc
    Number of dsmc particles        = 3335
    Number of molecules             = 3.335e+21
    Mass in system                  = 0.000155078
    Average linear momentum         = (2.44931e-25 -1.03114e-25 2.28296e-25)
   |Average linear momentum|        = 3.50346e-25
    Average linear kinetic energy   = 5.23275e-21
    Average internal energy         = 3.58784e-21
    Average total energy            = 8.82059e-21

ExecutionTime = 0.37 s  ClockTime = 2 s

fieldAverage fieldAverage1 write:
    Calculating averages

Time = 3.5e-05

    No collisions
Cloud name: dsmc
    Number of dsmc particles        = 3335
    Number of molecules             = 3.335e+21
    Mass in system                  = 0.000155078
    Average linear momentum         = (2.44931e-25 -1.03114e-25 2.28296e-25)
   |Average linear momentum|        = 3.50346e-25
    Average linear kinetic energy   = 5.23275e-21
    Average internal energy         = 3.58784e-21
    Average total energy            = 8.82059e-21

ExecutionTime = 0.37 s  ClockTime = 2 s

fieldAverage fieldAverage1 write:
    Calculating averages

Time = 3.6e-05

    No collisions
Cloud name: dsmc
    Number of dsmc particles        = 3335
    Number of molecules             = 3.335e+21
    Mass in system                  = 0.000155078
    Average linear momentum         = (2.44931e-25 -1.03114e-25 2.28296e-25)
   |Average linear momentum|        = 3.50346e-25
    Average linear kinetic energy   = 5.23275e-21
    Average internal energy         = 3.58784e-21
    Average total energy            = 8.82059e-21

ExecutionTime = 0.37 s  ClockTime = 2 s

fieldAverage fieldAverage1 write:
    Calculating averages

Time = 3.7e-05

    No collisions
Cloud name: dsmc
    Number of dsmc particles        = 3335
    Number of molecules             = 3.335e+21
    Mass in system                  = 0.000155078
    Average linear momentum         = (2.44931e-25 -1.03114e-25 2.28296e-25)
   |Average linear momentum|        = 3.50346e-25
    Average linear kinetic energy   = 5.23275e-21
    Average internal energy         = 3.58784e-21
    Average total energy            = 8.82059e-21

ExecutionTime = 0.37 s  ClockTime = 2 s

fieldAverage fieldAverage1 write:
    Calculating averages

Time = 3.8e-05

    No collisions
Cloud name: dsmc
    Number of dsmc particles        = 3335
    Number of molecules             = 3.335e+21
    Mass in system                  = 0.000155078
    Average linear momentum         = (2.44931e-25 -1.03114e-25 2.28296e-25)
   |Average linear momentum|        = 3.50346e-25
    Average linear kinetic energy   = 5.23275e-21
    Average internal energy         = 3.58784e-21
    Average total energy            = 8.82059e-21

ExecutionTime = 0.37 s  ClockTime = 2 s

fieldAverage fieldAverage1 write:
    Calculating averages

Time = 3.9e-05

    No collisions
Cloud name: dsmc
    Number of dsmc particles        = 3335
    Number of molecules             = 3.335e+21
    Mass in system                  = 0.000155078
    Average linear momentum         = (2.44931e-25 -1.03114e-25 2.28296e-25)
   |Average linear momentum|        = 3.50346e-25
    Average linear kinetic energy   = 5.23275e-21
    Average internal energy         = 3.58784e-21
    Average total energy            = 8.82059e-21

ExecutionTime = 0.37 s  ClockTime = 2 s

fieldAverage fieldAverage1 write:
    Calculating averages

Time = 4e-05

    No collisions
Cloud name: dsmc
    Number of dsmc particles        = 3335
    Number of molecules             = 3.335e+21
    Mass in system                  = 0.000155078
    Average linear momentum         = (2.44931e-25 -1.03114e-25 2.28296e-25)
   |Average linear momentum|        = 3.50346e-25
    Average linear kinetic energy   = 5.23275e-21
    Average internal energy         = 3.58784e-21
    Average total energy            = 8.82059e-21

ExecutionTime = 0.37 s  ClockTime = 2 s

fieldAverage fieldAverage1 write:
    Calculating averages

Time = 4.1e-05

    No collisions
Cloud name: dsmc
    Number of dsmc particles        = 3335
    Number of molecules             = 3.335e+21
    Mass in system                  = 0.000155078
    Average linear momentum         = (2.44931e-25 -1.03114e-25 2.28296e-25)
   |Average linear momentum|        = 3.50346e-25
    Average linear kinetic energy   = 5.23275e-21
    Average internal energy         = 3.58784e-21
    Average total energy            = 8.82059e-21

ExecutionTime = 0.39 s  ClockTime = 2 s

fieldAverage fieldAverage1 write:
    Calculating averages

Time = 4.2e-05

    No collisions
Cloud name: dsmc
    Number of dsmc particles        = 3335
    Number of molecules             = 3.335e+21
    Mass in system                  = 0.000155078
    Average linear momentum         = (2.44931e-25 -1.03114e-25 2.28296e-25)
   |Average linear momentum|        = 3.50346e-25
    Average linear kinetic energy   = 5.23275e-21
    Average internal energy         = 3.58784e-21
    Average total energy            = 8.82059e-21

ExecutionTime = 0.39 s  ClockTime = 2 s

fieldAverage fieldAverage1 write:
    Calculating averages

Time = 4.3e-05

    No collisions
Cloud name: dsmc
    Number of dsmc particles        = 3335
    Number of molecules             = 3.335e+21
    Mass in system                  = 0.000155078
    Average linear momentum         = (2.44931e-25 -1.03114e-25 2.28296e-25)
   |Average linear momentum|        = 3.50346e-25
    Average linear kinetic energy   = 5.23275e-21
    Average internal energy         = 3.58784e-21
    Average total energy            = 8.82059e-21

ExecutionTime = 0.39 s  ClockTime = 2 s

fieldAverage fieldAverage1 write:
    Calculating averages

Time = 4.4e-05

    No collisions
Cloud name: dsmc
    Number of dsmc particles        = 3335
    Number of molecules             = 3.335e+21
    Mass in system                  = 0.000155078
    Average linear momentum         = (2.44931e-25 -1.03114e-25 2.28296e-25)
   |Average linear momentum|        = 3.50346e-25
    Average linear kinetic energy   = 5.23275e-21
    Average internal energy         = 3.58784e-21
    Average total energy            = 8.82059e-21

ExecutionTime = 0.39 s  ClockTime = 2 s

fieldAverage fieldAverage1 write:
    Calculating averages

Time = 4.5e-05

    No collisions
Cloud name: dsmc
    Number of dsmc particles        = 3335
    Number of molecules             = 3.335e+21
    Mass in system                  = 0.000155078
    Average linear momentum         = (2.44931e-25 -1.03114e-25 2.28296e-25)
   |Average linear momentum|        = 3.50346e-25
    Average linear kinetic energy   = 5.23275e-21
    Average internal energy         = 3.58784e-21
    Average total energy            = 8.82059e-21

ExecutionTime = 0.39 s  ClockTime = 2 s

fieldAverage fieldAverage1 write:
    Calculating averages

Time = 4.6e-05

    No collisions
Cloud name: dsmc
    Number of dsmc particles        = 3335
    Number of molecules             = 3.335e+21
    Mass in system                  = 0.000155078
    Average linear momentum         = (2.44931e-25 -1.03114e-25 2.28296e-25)
   |Average linear momentum|        = 3.50346e-25
    Average linear kinetic energy   = 5.23275e-21
    Average internal energy         = 3.58784e-21
    Average total energy            = 8.82059e-21

ExecutionTime = 0.39 s  ClockTime = 2 s

fieldAverage fieldAverage1 write:
    Calculating averages

Time = 4.7e-05

    No collisions
Cloud name: dsmc
    Number of dsmc particles        = 3335
    Number of molecules             = 3.335e+21
    Mass in system                  = 0.000155078
    Average linear momentum         = (2.44931e-25 -1.03114e-25 2.28296e-25)
   |Average linear momentum|        = 3.50346e-25
    Average linear kinetic energy   = 5.23275e-21
    Average internal energy         = 3.58784e-21
    Average total energy            = 8.82059e-21

ExecutionTime = 0.39 s  ClockTime = 2 s

fieldAverage fieldAverage1 write:
    Calculating averages

Time = 4.8e-05

    No collisions
Cloud name: dsmc
    Number of dsmc particles        = 3335
    Number of molecules             = 3.335e+21
    Mass in system                  = 0.000155078
    Average linear momentum         = (2.44931e-25 -1.03114e-25 2.28296e-25)
   |Average linear momentum|        = 3.50346e-25
    Average linear kinetic energy   = 5.23275e-21
    Average internal energy         = 3.58784e-21
    Average total energy            = 8.82059e-21

ExecutionTime = 0.39 s  ClockTime = 2 s

fieldAverage fieldAverage1 write:
    Calculating averages

Time = 4.9e-05

    No collisions
Cloud name: dsmc
    Number of dsmc particles        = 3335
    Number of molecules             = 3.335e+21
    Mass in system                  = 0.000155078
    Average linear momentum         = (2.44931e-25 -1.03114e-25 2.28296e-25)
   |Average linear momentum|        = 3.50346e-25
    Average linear kinetic energy   = 5.23275e-21
    Average internal energy         = 3.58784e-21
    Average total energy            = 8.82059e-21

ExecutionTime = 0.39 s  ClockTime = 2 s

fieldAverage fieldAverage1 write:
    Calculating averages

Time = 5e-05

    No collisions
Cloud name: dsmc
    Number of dsmc particles        = 3335
    Number of molecules             = 3.335e+21
    Mass in system                  = 0.000155078
    Average linear momentum         = (2.44931e-25 -1.03114e-25 2.28296e-25)
   |Average linear momentum|        = 3.50346e-25
    Average linear kinetic energy   = 5.23275e-21
    Average internal energy         = 3.58784e-21
    Average total energy            = 8.82059e-21

ExecutionTime = 0.39 s  ClockTime = 2 s

fieldAverage fieldAverage1 write:
    Calculating averages

Time = 5.1e-05

    No collisions
Cloud name: dsmc
    Number of dsmc particles        = 3335
    Number of molecules             = 3.335e+21
    Mass in system                  = 0.000155078
    Average linear momentum         = (2.44931e-25 -1.03114e-25 2.28296e-25)
   |Average linear momentum|        = 3.50346e-25
    Average linear kinetic energy   = 5.23275e-21
    Average internal energy         = 3.58784e-21
    Average total energy            = 8.82059e-21

ExecutionTime = 0.39 s  ClockTime = 2 s

fieldAverage fieldAverage1 write:
    Calculating averages

Time = 5.2e-05

    No collisions
Cloud name: dsmc
    Number of dsmc particles        = 3335
    Number of molecules             = 3.335e+21
    Mass in system                  = 0.000155078
    Average linear momentum         = (2.44931e-25 -1.03114e-25 2.28296e-25)
   |Average linear momentum|        = 3.50346e-25
    Average linear kinetic energy   = 5.23275e-21
    Average internal energy         = 3.58784e-21
    Average total energy            = 8.82059e-21

ExecutionTime = 0.4 s  ClockTime = 2 s

fieldAverage fieldAverage1 write:
    Calculating averages

Time = 5.3e-05

    No collisions
Cloud name: dsmc
    Number of dsmc particles        = 3335
    Number of molecules             = 3.335e+21
    Mass in system                  = 0.000155078
    Average linear momentum         = (2.44931e-25 -1.03114e-25 2.28296e-25)
   |Average linear momentum|        = 3.50346e-25
    Average linear kinetic energy   = 5.23275e-21
    Average internal energy         = 3.58784e-21
    Average total energy            = 8.82059e-21

ExecutionTime = 0.4 s  ClockTime = 2 s

fieldAverage fieldAverage1 write:
    Calculating averages

Time = 5.4e-05

    No collisions
Cloud name: dsmc
    Number of dsmc particles        = 3335
    Number of molecules             = 3.335e+21
    Mass in system                  = 0.000155078
    Average linear momentum         = (2.44931e-25 -1.03114e-25 2.28296e-25)
   |Average linear momentum|        = 3.50346e-25
    Average linear kinetic energy   = 5.23275e-21
    Average internal energy         = 3.58784e-21
    Average total energy            = 8.82059e-21

ExecutionTime = 0.4 s  ClockTime = 2 s

fieldAverage fieldAverage1 write:
    Calculating averages

Time = 5.5e-05

    No collisions
Cloud name: dsmc
    Number of dsmc particles        = 3335
    Number of molecules             = 3.335e+21
    Mass in system                  = 0.000155078
    Average linear momentum         = (2.44931e-25 -1.03114e-25 2.28296e-25)
   |Average linear momentum|        = 3.50346e-25
    Average linear kinetic energy   = 5.23275e-21
    Average internal energy         = 3.58784e-21
    Average total energy            = 8.82059e-21

ExecutionTime = 0.4 s  ClockTime = 2 s

fieldAverage fieldAverage1 write:
    Calculating averages

Time = 5.6e-05

    No collisions
Cloud name: dsmc
    Number of dsmc particles        = 3334
    Number of molecules             = 3.334e+21
    Mass in system                  = 0.000155031
    Average linear momentum         = (2.46054e-25 -1.02111e-25 2.36798e-25)
   |Average linear momentum|        = 3.56431e-25
    Average linear kinetic energy   = 5.23169e-21
    Average internal energy         = 3.58389e-21
    Average total energy            = 8.81558e-21

ExecutionTime = 0.4 s  ClockTime = 2 s

fieldAverage fieldAverage1 write:
    Calculating averages

Time = 5.7e-05

    No collisions
Cloud name: dsmc
    Number of dsmc particles        = 3334
    Number of molecules             = 3.334e+21
    Mass in system                  = 0.000155031
    Average linear momentum         = (2.46054e-25 -1.02111e-25 2.36798e-25)
   |Average linear momentum|        = 3.56431e-25
    Average linear kinetic energy   = 5.23169e-21
    Average internal energy         = 3.58389e-21
    Average total energy            = 8.81558e-21

ExecutionTime = 0.4 s  ClockTime = 2 s

fieldAverage fieldAverage1 write:
    Calculating averages

Time = 5.8e-05

    No collisions
Cloud name: dsmc
    Number of dsmc particles        = 3333
    Number of molecules             = 3.333e+21
    Mass in system                  = 0.000154985
    Average linear momentum         = (2.50699e-25 -9.71492e-26 2.43151e-25)
   |Average linear momentum|        = 3.62505e-25
    Average linear kinetic energy   = 5.2302e-21
    Average internal energy         = 3.5819e-21
    Average total energy            = 8.8121e-21

ExecutionTime = 0.4 s  ClockTime = 2 s

fieldAverage fieldAverage1 write:
    Calculating averages

Time = 5.9e-05

    No collisions
Cloud name: dsmc
    Number of dsmc particles        = 3333
    Number of molecules             = 3.333e+21
    Mass in system                  = 0.000154985
    Average linear momentum         = (2.50699e-25 -9.71492e-26 2.43151e-25)
   |Average linear momentum|        = 3.62505e-25
    Average linear kinetic energy   = 5.2302e-21
    Average internal energy         = 3.5819e-21
    Average total energy            = 8.8121e-21

ExecutionTime = 0.4 s  ClockTime = 2 s

fieldAverage fieldAverage1 write:
    Calculating averages

Time = 6e-05

    No collisions
Cloud name: dsmc
    Number of dsmc particles        = 3333
    Number of molecules             = 3.333e+21
    Mass in system                  = 0.000154985
    Average linear momentum         = (2.50699e-25 -9.71492e-26 2.43151e-25)
   |Average linear momentum|        = 3.62505e-25
    Average linear kinetic energy   = 5.2302e-21
    Average internal energy         = 3.5819e-21
    Average total energy            = 8.8121e-21

ExecutionTime = 0.4 s  ClockTime = 2 s

fieldAverage fieldAverage1 write:
    Calculating averages

Time = 6.1e-05

    No collisions
Cloud name: dsmc
    Number of dsmc particles        = 3332
    Number of molecules             = 3.332e+21
    Mass in system                  = 0.000154938
    Average linear momentum         = (2.48409e-25 -9.40142e-26 2.45254e-25)
   |Average linear momentum|        = 3.61519e-25
    Average linear kinetic energy   = 5.23106e-21
    Average internal energy         = 3.58099e-21
    Average total energy            = 8.81205e-21

ExecutionTime = 0.4 s  ClockTime = 2 s

fieldAverage fieldAverage1 write:
    Calculating averages

Time = 6.2e-05

    No collisions
Cloud name: dsmc
    Number of dsmc particles        = 3332
    Number of molecules             = 3.332e+21
    Mass in system                  = 0.000154938
    Average linear momentum         = (2.48409e-25 -9.40142e-26 2.45254e-25)
   |Average linear momentum|        = 3.61519e-25
    Average linear kinetic energy   = 5.23106e-21
    Average internal energy         = 3.58099e-21
    Average total energy            = 8.81205e-21

ExecutionTime = 0.4 s  ClockTime = 2 s

fieldAverage fieldAverage1 write:
    Calculating averages

Time = 6.3e-05

    No collisions
Cloud name: dsmc
    Number of dsmc particles        = 3332
    Number of molecules             = 3.332e+21
    Mass in system                  = 0.000154938
    Average linear momentum         = (2.48409e-25 -9.40142e-26 2.45254e-25)
   |Average linear momentum|        = 3.61519e-25
    Average linear kinetic energy   = 5.23106e-21
    Average internal energy         = 3.58099e-21
    Average total energy            = 8.81205e-21

ExecutionTime = 0.4 s  ClockTime = 2 s

fieldAverage fieldAverage1 write:
    Calculating averages

Time = 6.4e-05

    No collisions
Cloud name: dsmc
    Number of dsmc particles        = 3332
    Number of molecules             = 3.332e+21
    Mass in system                  = 0.000154938
    Average linear momentum         = (2.48409e-25 -9.40142e-26 2.45254e-25)
   |Average linear momentum|        = 3.61519e-25
    Average linear kinetic energy   = 5.23106e-21
    Average internal energy         = 3.58099e-21
    Average total energy            = 8.81205e-21

ExecutionTime = 0.42 s  ClockTime = 2 s

fieldAverage fieldAverage1 write:
    Calculating averages

Time = 6.5e-05

    No collisions
Cloud name: dsmc
    Number of dsmc particles        = 3332
    Number of molecules             = 3.332e+21
    Mass in system                  = 0.000154938
    Average linear momentum         = (2.48409e-25 -9.40142e-26 2.45254e-25)
   |Average linear momentum|        = 3.61519e-25
    Average linear kinetic energy   = 5.23106e-21
    Average internal energy         = 3.58099e-21
    Average total energy            = 8.81205e-21

ExecutionTime = 0.42 s  ClockTime = 2 s

fieldAverage fieldAverage1 write:
    Calculating averages

Time = 6.6e-05

    No collisions
Cloud name: dsmc
    Number of dsmc particles        = 3332
    Number of molecules             = 3.332e+21
    Mass in system                  = 0.000154938
    Average linear momentum         = (2.48409e-25 -9.40142e-26 2.45254e-25)
   |Average linear momentum|        = 3.61519e-25
    Average linear kinetic energy   = 5.23106e-21
    Average internal energy         = 3.58099e-21
    Average total energy            = 8.81205e-21

ExecutionTime = 0.42 s  ClockTime = 2 s

fieldAverage fieldAverage1 write:
    Calculating averages

Time = 6.7e-05

    No collisions
Cloud name: dsmc
    Number of dsmc particles        = 3332
    Number of molecules             = 3.332e+21
    Mass in system                  = 0.000154938
    Average linear momentum         = (2.48409e-25 -9.40142e-26 2.45254e-25)
   |Average linear momentum|        = 3.61519e-25
    Average linear kinetic energy   = 5.23106e-21
    Average internal energy         = 3.58099e-21
    Average total energy            = 8.81205e-21

ExecutionTime = 0.42 s  ClockTime = 2 s

fieldAverage fieldAverage1 write:
    Calculating averages

Time = 6.8e-05

    No collisions
Cloud name: dsmc
    Number of dsmc particles        = 3332
    Number of molecules             = 3.332e+21
    Mass in system                  = 0.000154938
    Average linear momentum         = (2.48409e-25 -9.40142e-26 2.45254e-25)
   |Average linear momentum|        = 3.61519e-25
    Average linear kinetic energy   = 5.23106e-21
    Average internal energy         = 3.58099e-21
    Average total energy            = 8.81205e-21

ExecutionTime = 0.42 s  ClockTime = 2 s

fieldAverage fieldAverage1 write:
    Calculating averages

Time = 6.9e-05

    No collisions
Cloud name: dsmc
    Number of dsmc particles        = 3332
    Number of molecules             = 3.332e+21
    Mass in system                  = 0.000154938
    Average linear momentum         = (2.48409e-25 -9.40142e-26 2.45254e-25)
   |Average linear momentum|        = 3.61519e-25
    Average linear kinetic energy   = 5.23106e-21
    Average internal energy         = 3.58099e-21
    Average total energy            = 8.81205e-21

ExecutionTime = 0.42 s  ClockTime = 2 s

fieldAverage fieldAverage1 write:
    Calculating averages

Time = 7e-05

    No collisions
Cloud name: dsmc
    Number of dsmc particles        = 3332
    Number of molecules             = 3.332e+21
    Mass in system                  = 0.000154938
    Average linear momentum         = (2.48409e-25 -9.40142e-26 2.45254e-25)
   |Average linear momentum|        = 3.61519e-25
    Average linear kinetic energy   = 5.23106e-21
    Average internal energy         = 3.58099e-21
    Average total energy            = 8.81205e-21

ExecutionTime = 0.42 s  ClockTime = 2 s

fieldAverage fieldAverage1 write:
    Calculating averages

Time = 7.1e-05

    No collisions
Cloud name: dsmc
    Number of dsmc particles        = 3332
    Number of molecules             = 3.332e+21
    Mass in system                  = 0.000154938
    Average linear momentum         = (2.48409e-25 -9.40142e-26 2.45254e-25)
   |Average linear momentum|        = 3.61519e-25
    Average linear kinetic energy   = 5.23106e-21
    Average internal energy         = 3.58099e-21
    Average total energy            = 8.81205e-21

ExecutionTime = 0.42 s  ClockTime = 2 s

fieldAverage fieldAverage1 write:
    Calculating averages

Time = 7.2e-05

    No collisions
Cloud name: dsmc
    Number of dsmc particles        = 3332
    Number of molecules             = 3.332e+21
    Mass in system                  = 0.000154938
    Average linear momentum         = (2.48409e-25 -9.40142e-26 2.45254e-25)
   |Average linear momentum|        = 3.61519e-25
    Average linear kinetic energy   = 5.23106e-21
    Average internal energy         = 3.58099e-21
    Average total energy            = 8.81205e-21

ExecutionTime = 0.42 s  ClockTime = 2 s

fieldAverage fieldAverage1 write:
    Calculating averages

Time = 7.3e-05

    No collisions
Cloud name: dsmc
    Number of dsmc particles        = 3332
    Number of molecules             = 3.332e+21
    Mass in system                  = 0.000154938
    Average linear momentum         = (2.48409e-25 -9.40142e-26 2.45254e-25)
   |Average linear momentum|        = 3.61519e-25
    Average linear kinetic energy   = 5.23106e-21
    Average internal energy         = 3.58099e-21
    Average total energy            = 8.81205e-21

ExecutionTime = 0.42 s  ClockTime = 2 s

fieldAverage fieldAverage1 write:
    Calculating averages

Time = 7.4e-05

    No collisions
Cloud name: dsmc
    Number of dsmc particles        = 3332
    Number of molecules             = 3.332e+21
    Mass in system                  = 0.000154938
    Average linear momentum         = (2.48409e-25 -9.40142e-26 2.45254e-25)
   |Average linear momentum|        = 3.61519e-25
    Average linear kinetic energy   = 5.23106e-21
    Average internal energy         = 3.58099e-21
    Average total energy            = 8.81205e-21

ExecutionTime = 0.42 s  ClockTime = 2 s

fieldAverage fieldAverage1 write:
    Calculating averages

Time = 7.5e-05

    No collisions
Cloud name: dsmc
    Number of dsmc particles        = 3332
    Number of molecules             = 3.332e+21
    Mass in system                  = 0.000154938
    Average linear momentum         = (2.48409e-25 -9.40142e-26 2.45254e-25)
   |Average linear momentum|        = 3.61519e-25
    Average linear kinetic energy   = 5.23106e-21
    Average internal energy         = 3.58099e-21
    Average total energy            = 8.81205e-21

ExecutionTime = 0.44 s  ClockTime = 2 s

fieldAverage fieldAverage1 write:
    Calculating averages

Time = 7.6e-05

    No collisions
Cloud name: dsmc
    Number of dsmc particles        = 3332
    Number of molecules             = 3.332e+21
    Mass in system                  = 0.000154938
    Average linear momentum         = (2.48409e-25 -9.40142e-26 2.45254e-25)
   |Average linear momentum|        = 3.61519e-25
    Average linear kinetic energy   = 5.23106e-21
    Average internal energy         = 3.58099e-21
    Average total energy            = 8.81205e-21

ExecutionTime = 0.44 s  ClockTime = 2 s

fieldAverage fieldAverage1 write:
    Calculating averages

Time = 7.7e-05

    No collisions
Cloud name: dsmc
    Number of dsmc particles        = 3332
    Number of molecules             = 3.332e+21
    Mass in system                  = 0.000154938
    Average linear momentum         = (2.48409e-25 -9.40142e-26 2.45254e-25)
   |Average linear momentum|        = 3.61519e-25
    Average linear kinetic energy   = 5.23106e-21
    Average internal energy         = 3.58099e-21
    Average total energy            = 8.81205e-21

ExecutionTime = 0.44 s  ClockTime = 2 s

fieldAverage fieldAverage1 write:
    Calculating averages

Time = 7.8e-05

    No collisions
Cloud name: dsmc
    Number of dsmc particles        = 3332
    Number of molecules             = 3.332e+21
    Mass in system                  = 0.000154938
    Average linear momentum         = (2.48409e-25 -9.40142e-26 2.45254e-25)
   |Average linear momentum|        = 3.61519e-25
    Average linear kinetic energy   = 5.23106e-21
    Average internal energy         = 3.58099e-21
    Average total energy            = 8.81205e-21

ExecutionTime = 0.44 s  ClockTime = 2 s

fieldAverage fieldAverage1 write:
    Calculating averages

Time = 7.9e-05

    No collisions
Cloud name: dsmc
    Number of dsmc particles        = 3331
    Number of molecules             = 3.331e+21
    Mass in system                  = 0.000154892
    Average linear momentum         = (2.51584e-25 -9.95994e-26 2.41863e-25)
   |Average linear momentum|        = 3.62922e-25
    Average linear kinetic energy   = 5.23075e-21
    Average internal energy         = 3.58037e-21
    Average total energy            = 8.81112e-21

ExecutionTime = 0.44 s  ClockTime = 2 s

fieldAverage fieldAverage1 write:
    Calculating averages

Time = 8e-05

    No collisions
Cloud name: dsmc
    Number of dsmc particles        = 3331
    Number of molecules             = 3.331e+21
    Mass in system                  = 0.000154892
    Average linear momentum         = (2.51584e-25 -9.95994e-26 2.41863e-25)
   |Average linear momentum|        = 3.62922e-25
    Average linear kinetic energy   = 5.23075e-21
    Average internal energy         = 3.58037e-21
    Average total energy            = 8.81112e-21

ExecutionTime = 0.44 s  ClockTime = 2 s

fieldAverage fieldAverage1 write:
    Calculating averages

Time = 8.1e-05

    No collisions
Cloud name: dsmc
    Number of dsmc particles        = 3331
    Number of molecules             = 3.331e+21
    Mass in system                  = 0.000154892
    Average linear momentum         = (2.51584e-25 -9.95994e-26 2.41863e-25)
   |Average linear momentum|        = 3.62922e-25
    Average linear kinetic energy   = 5.23075e-21
    Average internal energy         = 3.58037e-21
    Average total energy            = 8.81112e-21

ExecutionTime = 0.44 s  ClockTime = 2 s

fieldAverage fieldAverage1 write:
    Calculating averages

Time = 8.2e-05

    No collisions
Cloud name: dsmc
    Number of dsmc particles        = 3331
    Number of molecules             = 3.331e+21
    Mass in system                  = 0.000154892
    Average linear momentum         = (2.51584e-25 -9.95994e-26 2.41863e-25)
   |Average linear momentum|        = 3.62922e-25
    Average linear kinetic energy   = 5.23075e-21
    Average internal energy         = 3.58037e-21
    Average total energy            = 8.81112e-21

ExecutionTime = 0.44 s  ClockTime = 2 s

fieldAverage fieldAverage1 write:
    Calculating averages

Time = 8.3e-05

    No collisions
Cloud name: dsmc
    Number of dsmc particles        = 3331
    Number of molecules             = 3.331e+21
    Mass in system                  = 0.000154892
    Average linear momentum         = (2.51584e-25 -9.95994e-26 2.41863e-25)
   |Average linear momentum|        = 3.62922e-25
    Average linear kinetic energy   = 5.23075e-21
    Average internal energy         = 3.58037e-21
    Average total energy            = 8.81112e-21

ExecutionTime = 0.44 s  ClockTime = 2 s

fieldAverage fieldAverage1 write:
    Calculating averages

Time = 8.4e-05

    No collisions
Cloud name: dsmc
    Number of dsmc particles        = 3331
    Number of molecules             = 3.331e+21
    Mass in system                  = 0.000154892
    Average linear momentum         = (2.51584e-25 -9.95994e-26 2.41863e-25)
   |Average linear momentum|        = 3.62922e-25
    Average linear kinetic energy   = 5.23075e-21
    Average internal energy         = 3.58037e-21
    Average total energy            = 8.81112e-21

ExecutionTime = 0.44 s  ClockTime = 2 s

fieldAverage fieldAverage1 write:
    Calculating averages

Time = 8.5e-05

    No collisions
Cloud name: dsmc
    Number of dsmc particles        = 3331
    Number of molecules             = 3.331e+21
    Mass in system                  = 0.000154892
    Average linear momentum         = (2.51584e-25 -9.95994e-26 2.41863e-25)
   |Average linear momentum|        = 3.62922e-25
    Average linear kinetic energy   = 5.23075e-21
    Average internal energy         = 3.58037e-21
    Average total energy            = 8.81112e-21

ExecutionTime = 0.44 s  ClockTime = 2 s

fieldAverage fieldAverage1 write:
    Calculating averages

Time = 8.6e-05

    No collisions
Cloud name: dsmc
    Number of dsmc particles        = 3331
    Number of molecules             = 3.331e+21
    Mass in system                  = 0.000154892
    Average linear momentum         = (2.51584e-25 -9.95994e-26 2.41863e-25)
   |Average linear momentum|        = 3.62922e-25
    Average linear kinetic energy   = 5.23075e-21
    Average internal energy         = 3.58037e-21
    Average total energy            = 8.81112e-21

ExecutionTime = 0.44 s  ClockTime = 2 s

fieldAverage fieldAverage1 write:
    Calculating averages

Time = 8.7e-05

    No collisions
Cloud name: dsmc
    Number of dsmc particles        = 3330
    Number of molecules             = 3.33e+21
    Mass in system                  = 0.000154845
    Average linear momentum         = (2.47463e-25 -9.95892e-26 2.51376e-25)
   |Average linear momentum|        = 3.66532e-25
    Average linear kinetic energy   = 5.2285e-21
    Average internal energy         = 3.58101e-21
    Average total energy            = 8.80951e-21

ExecutionTime = 0.45 s  ClockTime = 2 s

fieldAverage fieldAverage1 write:
    Calculating averages

Time = 8.8e-05

    No collisions
Cloud name: dsmc
    Number of dsmc particles        = 3330
    Number of molecules             = 3.33e+21
    Mass in system                  = 0.000154845
    Average linear momentum         = (2.47463e-25 -9.95892e-26 2.51376e-25)
   |Average linear momentum|        = 3.66532e-25
    Average linear kinetic energy   = 5.2285e-21
    Average internal energy         = 3.58101e-21
    Average total energy            = 8.80951e-21

ExecutionTime = 0.45 s  ClockTime = 2 s

fieldAverage fieldAverage1 write:
    Calculating averages

Time = 8.9e-05

    No collisions
Cloud name: dsmc
    Number of dsmc particles        = 3330
    Number of molecules             = 3.33e+21
    Mass in system                  = 0.000154845
    Average linear momentum         = (2.47463e-25 -9.95892e-26 2.51376e-25)
   |Average linear momentum|        = 3.66532e-25
    Average linear kinetic energy   = 5.2285e-21
    Average internal energy         = 3.58101e-21
    Average total energy            = 8.80951e-21

ExecutionTime = 0.45 s  ClockTime = 2 s

fieldAverage fieldAverage1 write:
    Calculating averages

Time = 9e-05

    No collisions
Cloud name: dsmc
    Number of dsmc particles        = 3330
    Number of molecules             = 3.33e+21
    Mass in system                  = 0.000154845
    Average linear momentum         = (2.47463e-25 -9.95892e-26 2.51376e-25)
   |Average linear momentum|        = 3.66532e-25
    Average linear kinetic energy   = 5.2285e-21
    Average internal energy         = 3.58101e-21
    Average total energy            = 8.80951e-21

ExecutionTime = 0.45 s  ClockTime = 2 s

fieldAverage fieldAverage1 write:
    Calculating averages

Time = 9.1e-05

    No collisions
Cloud name: dsmc
    Number of dsmc particles        = 3330
    Number of molecules             = 3.33e+21
    Mass in system                  = 0.000154845
    Average linear momentum         = (2.47463e-25 -9.95892e-26 2.51376e-25)
   |Average linear momentum|        = 3.66532e-25
    Average linear kinetic energy   = 5.2285e-21
    Average internal energy         = 3.58101e-21
    Average total energy            = 8.80951e-21

ExecutionTime = 0.45 s  ClockTime = 2 s

fieldAverage fieldAverage1 write:
    Calculating averages

Time = 9.2e-05

    No collisions
Cloud name: dsmc
    Number of dsmc particles        = 3330
    Number of molecules             = 3.33e+21
    Mass in system                  = 0.000154845
    Average linear momentum         = (2.47463e-25 -9.95892e-26 2.51376e-25)
   |Average linear momentum|        = 3.66532e-25
    Average linear kinetic energy   = 5.2285e-21
    Average internal energy         = 3.58101e-21
    Average total energy            = 8.80951e-21

ExecutionTime = 0.45 s  ClockTime = 2 s

fieldAverage fieldAverage1 write:
    Calculating averages

Time = 9.3e-05

    No collisions
Cloud name: dsmc
    Number of dsmc particles        = 3330
    Number of molecules             = 3.33e+21
    Mass in system                  = 0.000154845
    Average linear momentum         = (2.47463e-25 -9.95892e-26 2.51376e-25)
   |Average linear momentum|        = 3.66532e-25
    Average linear kinetic energy   = 5.2285e-21
    Average internal energy         = 3.58101e-21
    Average total energy            = 8.80951e-21

ExecutionTime = 0.45 s  ClockTime = 2 s

fieldAverage fieldAverage1 write:
    Calculating averages

Time = 9.4e-05

    No collisions
Cloud name: dsmc
    Number of dsmc particles        = 3330
    Number of molecules             = 3.33e+21
    Mass in system                  = 0.000154845
    Average linear momentum         = (2.47463e-25 -9.95892e-26 2.51376e-25)
   |Average linear momentum|        = 3.66532e-25
    Average linear kinetic energy   = 5.2285e-21
    Average internal energy         = 3.58101e-21
    Average total energy            = 8.80951e-21

ExecutionTime = 0.45 s  ClockTime = 2 s

fieldAverage fieldAverage1 write:
    Calculating averages

Time = 9.5e-05

    No collisions
Cloud name: dsmc
    Number of dsmc particles        = 3330
    Number of molecules             = 3.33e+21
    Mass in system                  = 0.000154845
    Average linear momentum         = (2.47463e-25 -9.95892e-26 2.51376e-25)
   |Average linear momentum|        = 3.66532e-25
    Average linear kinetic energy   = 5.2285e-21
    Average internal energy         = 3.58101e-21
    Average total energy            = 8.80951e-21

ExecutionTime = 0.45 s  ClockTime = 2 s

fieldAverage fieldAverage1 write:
    Calculating averages

Time = 9.6e-05

    No collisions
Cloud name: dsmc
    Number of dsmc particles        = 3330
    Number of molecules             = 3.33e+21
    Mass in system                  = 0.000154845
    Average linear momentum         = (2.47463e-25 -9.95892e-26 2.51376e-25)
   |Average linear momentum|        = 3.66532e-25
    Average linear kinetic energy   = 5.2285e-21
    Average internal energy         = 3.58101e-21
    Average total energy            = 8.80951e-21

ExecutionTime = 0.45 s  ClockTime = 2 s

fieldAverage fieldAverage1 write:
    Calculating averages

Time = 9.7e-05

    No collisions
Cloud name: dsmc
    Number of dsmc particles        = 3330
    Number of molecules             = 3.33e+21
    Mass in system                  = 0.000154845
    Average linear momentum         = (2.47463e-25 -9.95892e-26 2.51376e-25)
   |Average linear momentum|        = 3.66532e-25
    Average linear kinetic energy   = 5.2285e-21
    Average internal energy         = 3.58101e-21
    Average total energy            = 8.80951e-21

ExecutionTime = 0.45 s  ClockTime = 2 s

fieldAverage fieldAverage1 write:
    Calculating averages

Time = 9.8e-05

    No collisions
Cloud name: dsmc
    Number of dsmc particles        = 3330
    Number of molecules             = 3.33e+21
    Mass in system                  = 0.000154845
    Average linear momentum         = (2.47463e-25 -9.95892e-26 2.51376e-25)
   |Average linear momentum|        = 3.66532e-25
    Average linear kinetic energy   = 5.2285e-21
    Average internal energy         = 3.58101e-21
    Average total energy            = 8.80951e-21

ExecutionTime = 0.47 s  ClockTime = 2 s

fieldAverage fieldAverage1 write:
    Calculating averages

Time = 9.9e-05

    No collisions
Cloud name: dsmc
    Number of dsmc particles        = 3330
    Number of molecules             = 3.33e+21
    Mass in system                  = 0.000154845
    Average linear momentum         = (2.47463e-25 -9.95892e-26 2.51376e-25)
   |Average linear momentum|        = 3.66532e-25
    Average linear kinetic energy   = 5.2285e-21
    Average internal energy         = 3.58101e-21
    Average total energy            = 8.80951e-21

ExecutionTime = 0.47 s  ClockTime = 2 s

fieldAverage fieldAverage1 write:
    Calculating averages

Time = 0.0001

    No collisions
Cloud name: dsmc
    Number of dsmc particles        = 3330
    Number of molecules             = 3.33e+21
    Mass in system                  = 0.000154845
    Average linear momentum         = (2.47463e-25 -9.95892e-26 2.51376e-25)
   |Average linear momentum|        = 3.66532e-25
    Average linear kinetic energy   = 5.2285e-21
    Average internal energy         = 3.58101e-21
    Average total energy            = 8.80951e-21

ExecutionTime = 0.47 s  ClockTime = 2 s

fieldAverage fieldAverage1 write:
    Calculating averages

Time = 0.000101

    No collisions
Cloud name: dsmc
    Number of dsmc particles        = 3330
    Number of molecules             = 3.33e+21
    Mass in system                  = 0.000154845
    Average linear momentum         = (2.47463e-25 -9.95892e-26 2.51376e-25)
   |Average linear momentum|        = 3.66532e-25
    Average linear kinetic energy   = 5.2285e-21
    Average internal energy         = 3.58101e-21
    Average total energy            = 8.80951e-21

ExecutionTime = 0.47 s  ClockTime = 2 s

fieldAverage fieldAverage1 write:
    Calculating averages

Time = 0.000102

    No collisions
Cloud name: dsmc
    Number of dsmc particles        = 3330
    Number of molecules             = 3.33e+21
    Mass in system                  = 0.000154845
    Average linear momentum         = (2.47463e-25 -9.95892e-26 2.51376e-25)
   |Average linear momentum|        = 3.66532e-25
    Average linear kinetic energy   = 5.2285e-21
    Average internal energy         = 3.58101e-21
    Average total energy            = 8.80951e-21

ExecutionTime = 0.47 s  ClockTime = 2 s

fieldAverage fieldAverage1 write:
    Calculating averages

Time = 0.000103

    No collisions
Cloud name: dsmc
    Number of dsmc particles        = 3330
    Number of molecules             = 3.33e+21
    Mass in system                  = 0.000154845
    Average linear momentum         = (2.47463e-25 -9.95892e-26 2.51376e-25)
   |Average linear momentum|        = 3.66532e-25
    Average linear kinetic energy   = 5.2285e-21
    Average internal energy         = 3.58101e-21
    Average total energy            = 8.80951e-21

ExecutionTime = 0.47 s  ClockTime = 2 s

fieldAverage fieldAverage1 write:
    Calculating averages

Time = 0.000104

    No collisions
Cloud name: dsmc
    Number of dsmc particles        = 3330
    Number of molecules             = 3.33e+21
    Mass in system                  = 0.000154845
    Average linear momentum         = (2.47463e-25 -9.95892e-26 2.51376e-25)
   |Average linear momentum|        = 3.66532e-25
    Average linear kinetic energy   = 5.2285e-21
    Average internal energy         = 3.58101e-21
    Average total energy            = 8.80951e-21

ExecutionTime = 0.47 s  ClockTime = 2 s

fieldAverage fieldAverage1 write:
    Calculating averages

Time = 0.000105

    No collisions
Cloud name: dsmc
    Number of dsmc particles        = 3330
    Number of molecules             = 3.33e+21
    Mass in system                  = 0.000154845
    Average linear momentum         = (2.47463e-25 -9.95892e-26 2.51376e-25)
   |Average linear momentum|        = 3.66532e-25
    Average linear kinetic energy   = 5.2285e-21
    Average internal energy         = 3.58101e-21
    Average total energy            = 8.80951e-21

ExecutionTime = 0.47 s  ClockTime = 2 s

fieldAverage fieldAverage1 write:
    Calculating averages

Time = 0.000106

    No collisions
Cloud name: dsmc
    Number of dsmc particles        = 3330
    Number of molecules             = 3.33e+21
    Mass in system                  = 0.000154845
    Average linear momentum         = (2.47463e-25 -9.95892e-26 2.51376e-25)
   |Average linear momentum|        = 3.66532e-25
    Average linear kinetic energy   = 5.2285e-21
    Average internal energy         = 3.58101e-21
    Average total energy            = 8.80951e-21

ExecutionTime = 0.47 s  ClockTime = 2 s

fieldAverage fieldAverage1 write:
    Calculating averages

Time = 0.000107

    No collisions
Cloud name: dsmc
    Number of dsmc particles        = 3330
    Number of molecules             = 3.33e+21
    Mass in system                  = 0.000154845
    Average linear momentum         = (2.47463e-25 -9.95892e-26 2.51376e-25)
   |Average linear momentum|        = 3.66532e-25
    Average linear kinetic energy   = 5.2285e-21
    Average internal energy         = 3.58101e-21
    Average total energy            = 8.80951e-21

ExecutionTime = 0.47 s  ClockTime = 2 s

fieldAverage fieldAverage1 write:
    Calculating averages

Time = 0.000108

    No collisions
Cloud name: dsmc
    Number of dsmc particles        = 3330
    Number of molecules             = 3.33e+21
    Mass in system                  = 0.000154845
    Average linear momentum         = (2.47463e-25 -9.95892e-26 2.51376e-25)
   |Average linear momentum|        = 3.66532e-25
    Average linear kinetic energy   = 5.2285e-21
    Average internal energy         = 3.58101e-21
    Average total energy            = 8.80951e-21

ExecutionTime = 0.47 s  ClockTime = 2 s

fieldAverage fieldAverage1 write:
    Calculating averages

Time = 0.000109

    No collisions
Cloud name: dsmc
    Number of dsmc particles        = 3330
    Number of molecules             = 3.33e+21
    Mass in system                  = 0.000154845
    Average linear momentum         = (2.47463e-25 -9.95892e-26 2.51376e-25)
   |Average linear momentum|        = 3.66532e-25
    Average linear kinetic energy   = 5.2285e-21
    Average internal energy         = 3.58101e-21
    Average total energy            = 8.80951e-21

ExecutionTime = 0.47 s  ClockTime = 2 s

fieldAverage fieldAverage1 write:
    Calculating averages

Time = 0.00011

    No collisions
Cloud name: dsmc
    Number of dsmc particles        = 3330
    Number of molecules             = 3.33e+21
    Mass in system                  = 0.000154845
    Average linear momentum         = (2.47463e-25 -9.95892e-26 2.51376e-25)
   |Average linear momentum|        = 3.66532e-25
    Average linear kinetic energy   = 5.2285e-21
    Average internal energy         = 3.58101e-21
    Average total energy            = 8.80951e-21

ExecutionTime = 0.48 s  ClockTime = 2 s

fieldAverage fieldAverage1 write:
    Calculating averages

Time = 0.000111

    No collisions
Cloud name: dsmc
    Number of dsmc particles        = 3330
    Number of molecules             = 3.33e+21
    Mass in system                  = 0.000154845
    Average linear momentum         = (2.47463e-25 -9.95892e-26 2.51376e-25)
   |Average linear momentum|        = 3.66532e-25
    Average linear kinetic energy   = 5.2285e-21
    Average internal energy         = 3.58101e-21
    Average total energy            = 8.80951e-21

ExecutionTime = 0.48 s  ClockTime = 2 s

fieldAverage fieldAverage1 write:
    Calculating averages

Time = 0.000112

    No collisions
Cloud name: dsmc
    Number of dsmc particles        = 3330
    Number of molecules             = 3.33e+21
    Mass in system                  = 0.000154845
    Average linear momentum         = (2.47463e-25 -9.95892e-26 2.51376e-25)
   |Average linear momentum|        = 3.66532e-25
    Average linear kinetic energy   = 5.2285e-21
    Average internal energy         = 3.58101e-21
    Average total energy            = 8.80951e-21

ExecutionTime = 0.48 s  ClockTime = 2 s

fieldAverage fieldAverage1 write:
    Calculating averages

Time = 0.000113

    No collisions
Cloud name: dsmc
    Number of dsmc particles        = 3330
    Number of molecules             = 3.33e+21
    Mass in system                  = 0.000154845
    Average linear momentum         = (2.47463e-25 -9.95892e-26 2.51376e-25)
   |Average linear momentum|        = 3.66532e-25
    Average linear kinetic energy   = 5.2285e-21
    Average internal energy         = 3.58101e-21
    Average total energy            = 8.80951e-21

ExecutionTime = 0.48 s  ClockTime = 2 s

fieldAverage fieldAverage1 write:
    Calculating averages

Time = 0.000114

    No collisions
Cloud name: dsmc
    Number of dsmc particles        = 3329
    Number of molecules             = 3.329e+21
    Mass in system                  = 0.000154799
    Average linear momentum         = (2.51578e-25 -9.94994e-26 2.47798e-25)
   |Average linear momentum|        = 3.66872e-25
    Average linear kinetic energy   = 5.22901e-21
    Average internal energy         = 3.58013e-21
    Average total energy            = 8.80914e-21

ExecutionTime = 0.48 s  ClockTime = 2 s

fieldAverage fieldAverage1 write:
    Calculating averages

Time = 0.000115

    No collisions
Cloud name: dsmc
    Number of dsmc particles        = 3328
    Number of molecules             = 3.328e+21
    Mass in system                  = 0.000154752
    Average linear momentum         = (2.48208e-25 -9.83755e-26 2.54163e-25)
   |Average linear momentum|        = 3.68624e-25
    Average linear kinetic energy   = 5.22869e-21
    Average internal energy         = 3.58069e-21
    Average total energy            = 8.80938e-21

ExecutionTime = 0.48 s  ClockTime = 2 s

fieldAverage fieldAverage1 write:
    Calculating averages

Time = 0.000116

    No collisions
Cloud name: dsmc
    Number of dsmc particles        = 3328
    Number of molecules             = 3.328e+21
    Mass in system                  = 0.000154752
    Average linear momentum         = (2.48208e-25 -9.83755e-26 2.54163e-25)
   |Average linear momentum|        = 3.68624e-25
    Average linear kinetic energy   = 5.22869e-21
    Average internal energy         = 3.58069e-21
    Average total energy            = 8.80938e-21

ExecutionTime = 0.48 s  ClockTime = 2 s

fieldAverage fieldAverage1 write:
    Calculating averages

Time = 0.000117

    No collisions
Cloud name: dsmc
    Number of dsmc particles        = 3328
    Number of molecules             = 3.328e+21
    Mass in system                  = 0.000154752
    Average linear momentum         = (2.48208e-25 -9.83755e-26 2.54163e-25)
   |Average linear momentum|        = 3.68624e-25
    Average linear kinetic energy   = 5.22869e-21
    Average internal energy         = 3.58069e-21
    Average total energy            = 8.80938e-21

ExecutionTime = 0.48 s  ClockTime = 2 s

fieldAverage fieldAverage1 write:
    Calculating averages

Time = 0.000118

    No collisions
Cloud name: dsmc
    Number of dsmc particles        = 3327
    Number of molecules             = 3.327e+21
    Mass in system                  = 0.000154706
    Average linear momentum         = (2.46897e-25 -1.02652e-25 2.60242e-25)
   |Average linear momentum|        = 3.73123e-25
    Average linear kinetic energy   = 5.22826e-21
    Average internal energy         = 3.58094e-21
    Average total energy            = 8.8092e-21

ExecutionTime = 0.48 s  ClockTime = 2 s

fieldAverage fieldAverage1 write:
    Calculating averages

Time = 0.000119

    No collisions
Cloud name: dsmc
    Number of dsmc particles        = 3327
    Number of molecules             = 3.327e+21
    Mass in system                  = 0.000154706
    Average linear momentum         = (2.46897e-25 -1.02652e-25 2.60242e-25)
   |Average linear momentum|        = 3.73123e-25
    Average linear kinetic energy   = 5.22826e-21
    Average internal energy         = 3.58094e-21
    Average total energy            = 8.8092e-21

ExecutionTime = 0.48 s  ClockTime = 2 s

fieldAverage fieldAverage1 write:
    Calculating averages

Time = 0.00012

    No collisions
Cloud name: dsmc
    Number of dsmc particles        = 3326
    Number of molecules             = 3.326e+21
    Mass in system                  = 0.000154659
    Average linear momentum         = (2.52566e-25 -1.04449e-25 2.58886e-25)
   |Average linear momentum|        = 3.76459e-25
    Average linear kinetic energy   = 5.22853e-21
    Average internal energy         = 3.58e-21
    Average total energy            = 8.80853e-21

ExecutionTime = 0.48 s  ClockTime = 2 s

fieldAverage fieldAverage1 write:
    Calculating averages

Time = 0.000121

    No collisions
Cloud name: dsmc
    Number of dsmc particles        = 3326
    Number of molecules             = 3.326e+21
    Mass in system                  = 0.000154659
    Average linear momentum         = (2.52566e-25 -1.04449e-25 2.58886e-25)
   |Average linear momentum|        = 3.76459e-25
    Average linear kinetic energy   = 5.22853e-21
    Average internal energy         = 3.58e-21
    Average total energy            = 8.80853e-21

ExecutionTime = 0.48 s  ClockTime = 2 s

fieldAverage fieldAverage1 write:
    Calculating averages

Time = 0.000122

    No collisions
Cloud name: dsmc
    Number of dsmc particles        = 3326
    Number of molecules             = 3.326e+21
    Mass in system                  = 0.000154659
    Average linear momentum         = (2.52566e-25 -1.04449e-25 2.58886e-25)
   |Average linear momentum|        = 3.76459e-25
    Average linear kinetic energy   = 5.22853e-21
    Average internal energy         = 3.58e-21
    Average total energy            = 8.80853e-21

ExecutionTime = 0.5 s  ClockTime = 2 s

fieldAverage fieldAverage1 write:
    Calculating averages

Time = 0.000123

    No collisions
Cloud name: dsmc
    Number of dsmc particles        = 3326
    Number of molecules             = 3.326e+21
    Mass in system                  = 0.000154659
    Average linear momentum         = (2.52566e-25 -1.04449e-25 2.58886e-25)
   |Average linear momentum|        = 3.76459e-25
    Average linear kinetic energy   = 5.22853e-21
    Average internal energy         = 3.58e-21
    Average total energy            = 8.80853e-21

ExecutionTime = 0.5 s  ClockTime = 2 s

fieldAverage fieldAverage1 write:
    Calculating averages

Time = 0.000124

    No collisions
Cloud name: dsmc
    Number of dsmc particles        = 3326
    Number of molecules             = 3.326e+21
    Mass in system                  = 0.000154659
    Average linear momentum         = (2.52566e-25 -1.04449e-25 2.58886e-25)
   |Average linear momentum|        = 3.76459e-25
    Average linear kinetic energy   = 5.22853e-21
    Average internal energy         = 3.58e-21
    Average total energy            = 8.80853e-21

ExecutionTime = 0.5 s  ClockTime = 2 s

fieldAverage fieldAverage1 write:
    Calculating averages

Time = 0.000125

    No collisions
Cloud name: dsmc
    Number of dsmc particles        = 3326
    Number of molecules             = 3.326e+21
    Mass in system                  = 0.000154659
    Average linear momentum         = (2.52566e-25 -1.04449e-25 2.58886e-25)
   |Average linear momentum|        = 3.76459e-25
    Average linear kinetic energy   = 5.22853e-21
    Average internal energy         = 3.58e-21
    Average total energy            = 8.80853e-21

ExecutionTime = 0.5 s  ClockTime = 2 s

fieldAverage fieldAverage1 write:
    Calculating averages

Time = 0.000126

    No collisions
Cloud name: dsmc
    Number of dsmc particles        = 3325
    Number of molecules             = 3.325e+21
    Mass in system                  = 0.000154613
    Average linear momentum         = (2.43786e-25 -1.10108e-25 2.63013e-25)
   |Average linear momentum|        = 3.75142e-25
    Average linear kinetic energy   = 5.22558e-21
    Average internal energy         = 3.57988e-21
    Average total energy            = 8.80546e-21

ExecutionTime = 0.5 s  ClockTime = 2 s

fieldAverage fieldAverage1 write:
    Calculating averages

Time = 0.000127

    No collisions
Cloud name: dsmc
    Number of dsmc particles        = 3325
    Number of molecules             = 3.325e+21
    Mass in system                  = 0.000154613
    Average linear momentum         = (2.43786e-25 -1.10108e-25 2.63013e-25)
   |Average linear momentum|        = 3.75142e-25
    Average linear kinetic energy   = 5.22558e-21
    Average internal energy         = 3.57988e-21
    Average total energy            = 8.80546e-21

ExecutionTime = 0.5 s  ClockTime = 2 s

fieldAverage fieldAverage1 write:
    Calculating averages

Time = 0.000128

    No collisions
Cloud name: dsmc
    Number of dsmc particles        = 3325
    Number of molecules             = 3.325e+21
    Mass in system                  = 0.000154613
    Average linear momentum         = (2.43786e-25 -1.10108e-25 2.63013e-25)
   |Average linear momentum|        = 3.75142e-25
    Average linear kinetic energy   = 5.22558e-21
    Average internal energy         = 3.57988e-21
    Average total energy            = 8.80546e-21

ExecutionTime = 0.5 s  ClockTime = 2 s

fieldAverage fieldAverage1 write:
    Calculating averages

Time = 0.000129

    No collisions
Cloud name: dsmc
    Number of dsmc particles        = 3325
    Number of molecules             = 3.325e+21
    Mass in system                  = 0.000154613
    Average linear momentum         = (2.43786e-25 -1.10108e-25 2.63013e-25)
   |Average linear momentum|        = 3.75142e-25
    Average linear kinetic energy   = 5.22558e-21
    Average internal energy         = 3.57988e-21
    Average total energy            = 8.80546e-21

ExecutionTime = 0.5 s  ClockTime = 2 s

fieldAverage fieldAverage1 write:
    Calculating averages

Time = 0.00013

    No collisions
Cloud name: dsmc
    Number of dsmc particles        = 3324
    Number of molecules             = 3.324e+21
    Mass in system                  = 0.000154566
    Average linear momentum         = (2.36728e-25 -1.10072e-25 2.67673e-25)
   |Average linear momentum|        = 3.73905e-25
    Average linear kinetic energy   = 5.22458e-21
    Average internal energy         = 3.58008e-21
    Average total energy            = 8.80466e-21

ExecutionTime = 0.5 s  ClockTime = 2 s

fieldAverage fieldAverage1 write:
    Calculating averages

Time = 0.000131

    No collisions
Cloud name: dsmc
    Number of dsmc particles        = 3324
    Number of molecules             = 3.324e+21
    Mass in system                  = 0.000154566
    Average linear momentum         = (2.36728e-25 -1.10072e-25 2.67673e-25)
   |Average linear momentum|        = 3.73905e-25
    Average linear kinetic energy   = 5.22458e-21
    Average internal energy         = 3.58008e-21
    Average total energy            = 8.80466e-21

ExecutionTime = 0.5 s  ClockTime = 2 s

fieldAverage fieldAverage1 write:
    Calculating averages

Time = 0.000132

    No collisions
Cloud name: dsmc
    Number of dsmc particles        = 3323
    Number of molecules             = 3.323e+21
    Mass in system                  = 0.00015452
    Average linear momentum         = (2.33258e-25 -1.15669e-25 2.73034e-25)
   |Average linear momentum|        = 3.77275e-25
    Average linear kinetic energy   = 5.22361e-21
    Average internal energy         = 3.57972e-21
    Average total energy            = 8.80333e-21

ExecutionTime = 0.5 s  ClockTime = 2 s

fieldAverage fieldAverage1 write:
    Calculating averages

Time = 0.000133

    No collisions
Cloud name: dsmc
    Number of dsmc particles        = 3323
    Number of molecules             = 3.323e+21
    Mass in system                  = 0.00015452
    Average linear momentum         = (2.33258e-25 -1.15669e-25 2.73034e-25)
   |Average linear momentum|        = 3.77275e-25
    Average linear kinetic energy   = 5.22361e-21
    Average internal energy         = 3.57972e-21
    Average total energy            = 8.80333e-21

ExecutionTime = 0.52 s  ClockTime = 2 s

fieldAverage fieldAverage1 write:
    Calculating averages

Time = 0.000134

    No collisions
Cloud name: dsmc
    Number of dsmc particles        = 3323
    Number of molecules             = 3.323e+21
    Mass in system                  = 0.00015452
    Average linear momentum         = (2.33258e-25 -1.15669e-25 2.73034e-25)
   |Average linear momentum|        = 3.77275e-25
    Average linear kinetic energy   = 5.22361e-21
    Average internal energy         = 3.57972e-21
    Average total energy            = 8.80333e-21

ExecutionTime = 0.52 s  ClockTime = 2 s

fieldAverage fieldAverage1 write:
    Calculating averages

Time = 0.000135

    No collisions
Cloud name: dsmc
    Number of dsmc particles        = 3323
    Number of molecules             = 3.323e+21
    Mass in system                  = 0.00015452
    Average linear momentum         = (2.33258e-25 -1.15669e-25 2.73034e-25)
   |Average linear momentum|        = 3.77275e-25
    Average linear kinetic energy   = 5.22361e-21
    Average internal energy         = 3.57972e-21
    Average total energy            = 8.80333e-21

ExecutionTime = 0.52 s  ClockTime = 2 s

fieldAverage fieldAverage1 write:
    Calculating averages

Time = 0.000136

    No collisions
Cloud name: dsmc
    Number of dsmc particles        = 3323
    Number of molecules             = 3.323e+21
    Mass in system                  = 0.00015452
    Average linear momentum         = (2.33258e-25 -1.15669e-25 2.73034e-25)
   |Average linear momentum|        = 3.77275e-25
    Average linear kinetic energy   = 5.22361e-21
    Average internal energy         = 3.57972e-21
    Average total energy            = 8.80333e-21

ExecutionTime = 0.52 s  ClockTime = 2 s

fieldAverage fieldAverage1 write:
    Calculating averages

Time = 0.000137

    No collisions
Cloud name: dsmc
    Number of dsmc particles        = 3323
    Number of molecules             = 3.323e+21
    Mass in system                  = 0.00015452
    Average linear momentum         = (2.33258e-25 -1.15669e-25 2.73034e-25)
   |Average linear momentum|        = 3.77275e-25
    Average linear kinetic energy   = 5.22361e-21
    Average internal energy         = 3.57972e-21
    Average total energy            = 8.80333e-21

ExecutionTime = 0.52 s  ClockTime = 2 s

fieldAverage fieldAverage1 write:
    Calculating averages

Time = 0.000138

    No collisions
Cloud name: dsmc
    Number of dsmc particles        = 3323
    Number of molecules             = 3.323e+21
    Mass in system                  = 0.00015452
[...]
    Calculating averages

Time = 0.006969

    No collisions
Cloud name: dsmc
    Number of dsmc particles        = 2862
    Number of molecules             = 2.862e+21
    Mass in system                  = 0.000133083
    Average linear momentum         = (7.81369e-26 -1.01564e-25 2.73211e-25)
   |Average linear momentum|        = 3.01769e-25
    Average linear kinetic energy   = 4.84099e-21
    Average internal energy         = 3.52451e-21
    Average total energy            = 8.36549e-21

ExecutionTime = 10.21 s  ClockTime = 12 s

fieldAverage fieldAverage1 write:
    Calculating averages

Time = 0.00697

    No collisions
Cloud name: dsmc
    Number of dsmc particles        = 2862
    Number of molecules             = 2.862e+21
    Mass in system                  = 0.000133083
    Average linear momentum         = (7.81369e-26 -1.01564e-25 2.73211e-25)
   |Average linear momentum|        = 3.01769e-25
    Average linear kinetic energy   = 4.84099e-21
    Average internal energy         = 3.52451e-21
    Average total energy            = 8.36549e-21

ExecutionTime = 10.21 s  ClockTime = 12 s

fieldAverage fieldAverage1 write:
    Calculating averages

Time = 0.006971

    No collisions
Cloud name: dsmc
    Number of dsmc particles        = 2862
    Number of molecules             = 2.862e+21
    Mass in system                  = 0.000133083
    Average linear momentum         = (7.81369e-26 -1.01564e-25 2.73211e-25)
   |Average linear momentum|        = 3.01769e-25
    Average linear kinetic energy   = 4.84099e-21
    Average internal energy         = 3.52451e-21
    Average total energy            = 8.36549e-21

ExecutionTime = 10.23 s  ClockTime = 12 s

fieldAverage fieldAverage1 write:
    Calculating averages

Time = 0.006972

    No collisions
Cloud name: dsmc
    Number of dsmc particles        = 2862
    Number of molecules             = 2.862e+21
    Mass in system                  = 0.000133083
    Average linear momentum         = (7.81369e-26 -1.01564e-25 2.73211e-25)
   |Average linear momentum|        = 3.01769e-25
    Average linear kinetic energy   = 4.84099e-21
    Average internal energy         = 3.52451e-21
    Average total energy            = 8.36549e-21

ExecutionTime = 10.23 s  ClockTime = 12 s

fieldAverage fieldAverage1 write:
    Calculating averages

Time = 0.006973

    No collisions
Cloud name: dsmc
    Number of dsmc particles        = 2862
    Number of molecules             = 2.862e+21
    Mass in system                  = 0.000133083
    Average linear momentum         = (7.81369e-26 -1.01564e-25 2.73211e-25)
   |Average linear momentum|        = 3.01769e-25
    Average linear kinetic energy   = 4.84099e-21
    Average internal energy         = 3.52451e-21
    Average total energy            = 8.36549e-21

ExecutionTime = 10.23 s  ClockTime = 12 s

fieldAverage fieldAverage1 write:
    Calculating averages

Time = 0.006974

    No collisions
Cloud name: dsmc
    Number of dsmc particles        = 2862
    Number of molecules             = 2.862e+21
    Mass in system                  = 0.000133083
    Average linear momentum         = (7.81369e-26 -1.01564e-25 2.73211e-25)
   |Average linear momentum|        = 3.01769e-25
    Average linear kinetic energy   = 4.84099e-21
    Average internal energy         = 3.52451e-21
    Average total energy            = 8.36549e-21

ExecutionTime = 10.23 s  ClockTime = 12 s

fieldAverage fieldAverage1 write:
    Calculating averages

Time = 0.006975

    No collisions
Cloud name: dsmc
    Number of dsmc particles        = 2862
    Number of molecules             = 2.862e+21
    Mass in system                  = 0.000133083
    Average linear momentum         = (7.81369e-26 -1.01564e-25 2.73211e-25)
   |Average linear momentum|        = 3.01769e-25
    Average linear kinetic energy   = 4.84099e-21
    Average internal energy         = 3.52451e-21
    Average total energy            = 8.36549e-21

ExecutionTime = 10.23 s  ClockTime = 12 s

fieldAverage fieldAverage1 write:
    Calculating averages

Time = 0.006976

    No collisions
Cloud name: dsmc
    Number of dsmc particles        = 2862
    Number of molecules             = 2.862e+21
    Mass in system                  = 0.000133083
    Average linear momentum         = (7.81369e-26 -1.01564e-25 2.73211e-25)
   |Average linear momentum|        = 3.01769e-25
    Average linear kinetic energy   = 4.84099e-21
    Average internal energy         = 3.52451e-21
    Average total energy            = 8.36549e-21

ExecutionTime = 10.23 s  ClockTime = 12 s

fieldAverage fieldAverage1 write:
    Calculating averages

Time = 0.006977

    No collisions
Cloud name: dsmc
    Number of dsmc particles        = 2862
    Number of molecules             = 2.862e+21
    Mass in system                  = 0.000133083
    Average linear momentum         = (7.81369e-26 -1.01564e-25 2.73211e-25)
   |Average linear momentum|        = 3.01769e-25
    Average linear kinetic energy   = 4.84099e-21
    Average internal energy         = 3.52451e-21
    Average total energy            = 8.36549e-21

ExecutionTime = 10.23 s  ClockTime = 12 s

fieldAverage fieldAverage1 write:
    Calculating averages

Time = 0.006978

    No collisions
Cloud name: dsmc
    Number of dsmc particles        = 2862
    Number of molecules             = 2.862e+21
    Mass in system                  = 0.000133083
    Average linear momentum         = (7.81369e-26 -1.01564e-25 2.73211e-25)
   |Average linear momentum|        = 3.01769e-25
    Average linear kinetic energy   = 4.84099e-21
    Average internal energy         = 3.52451e-21
    Average total energy            = 8.36549e-21

ExecutionTime = 10.23 s  ClockTime = 12 s

fieldAverage fieldAverage1 write:
    Calculating averages

Time = 0.006979

    No collisions
Cloud name: dsmc
    Number of dsmc particles        = 2862
    Number of molecules             = 2.862e+21
    Mass in system                  = 0.000133083
    Average linear momentum         = (7.81369e-26 -1.01564e-25 2.73211e-25)
   |Average linear momentum|        = 3.01769e-25
    Average linear kinetic energy   = 4.84099e-21
    Average internal energy         = 3.52451e-21
    Average total energy            = 8.36549e-21

ExecutionTime = 10.23 s  ClockTime = 12 s

fieldAverage fieldAverage1 write:
    Calculating averages

Time = 0.00698

    No collisions
Cloud name: dsmc
    Number of dsmc particles        = 2862
    Number of molecules             = 2.862e+21
    Mass in system                  = 0.000133083
    Average linear momentum         = (7.81369e-26 -1.01564e-25 2.73211e-25)
   |Average linear momentum|        = 3.01769e-25
    Average linear kinetic energy   = 4.84099e-21
    Average internal energy         = 3.52451e-21
    Average total energy            = 8.36549e-21

ExecutionTime = 10.25 s  ClockTime = 12 s

fieldAverage fieldAverage1 write:
    Calculating averages

Time = 0.006981

    No collisions
Cloud name: dsmc
    Number of dsmc particles        = 2862
    Number of molecules             = 2.862e+21
    Mass in system                  = 0.000133083
    Average linear momentum         = (7.81369e-26 -1.01564e-25 2.73211e-25)
   |Average linear momentum|        = 3.01769e-25
    Average linear kinetic energy   = 4.84099e-21
    Average internal energy         = 3.52451e-21
    Average total energy            = 8.36549e-21

ExecutionTime = 10.25 s  ClockTime = 12 s

fieldAverage fieldAverage1 write:
    Calculating averages

Time = 0.006982

    No collisions
Cloud name: dsmc
    Number of dsmc particles        = 2862
    Number of molecules             = 2.862e+21
    Mass in system                  = 0.000133083
    Average linear momentum         = (7.81369e-26 -1.01564e-25 2.73211e-25)
   |Average linear momentum|        = 3.01769e-25
    Average linear kinetic energy   = 4.84099e-21
    Average internal energy         = 3.52451e-21
    Average total energy            = 8.36549e-21

ExecutionTime = 10.25 s  ClockTime = 12 s

fieldAverage fieldAverage1 write:
    Calculating averages

Time = 0.006983

    No collisions
Cloud name: dsmc
    Number of dsmc particles        = 2862
    Number of molecules             = 2.862e+21
    Mass in system                  = 0.000133083
    Average linear momentum         = (7.81369e-26 -1.01564e-25 2.73211e-25)
   |Average linear momentum|        = 3.01769e-25
    Average linear kinetic energy   = 4.84099e-21
    Average internal energy         = 3.52451e-21
    Average total energy            = 8.36549e-21

ExecutionTime = 10.25 s  ClockTime = 12 s

fieldAverage fieldAverage1 write:
    Calculating averages

Time = 0.006984

    No collisions
Cloud name: dsmc
    Number of dsmc particles        = 2861
    Number of molecules             = 2.861e+21
    Mass in system                  = 0.000133037
    Average linear momentum         = (8.8979e-26 -9.94707e-26 2.72345e-25)
   |Average linear momentum|        = 3.03288e-25
    Average linear kinetic energy   = 4.83892e-21
    Average internal energy         = 3.52312e-21
    Average total energy            = 8.36204e-21

ExecutionTime = 10.25 s  ClockTime = 12 s

fieldAverage fieldAverage1 write:
    Calculating averages

Time = 0.006985

    No collisions
Cloud name: dsmc
    Number of dsmc particles        = 2861
    Number of molecules             = 2.861e+21
    Mass in system                  = 0.000133037
    Average linear momentum         = (8.8979e-26 -9.94707e-26 2.72345e-25)
   |Average linear momentum|        = 3.03288e-25
    Average linear kinetic energy   = 4.83892e-21
    Average internal energy         = 3.52312e-21
    Average total energy            = 8.36204e-21

ExecutionTime = 10.25 s  ClockTime = 12 s

fieldAverage fieldAverage1 write:
    Calculating averages

Time = 0.006986

    No collisions
Cloud name: dsmc
    Number of dsmc particles        = 2861
    Number of molecules             = 2.861e+21
    Mass in system                  = 0.000133037
    Average linear momentum         = (8.8979e-26 -9.94707e-26 2.72345e-25)
   |Average linear momentum|        = 3.03288e-25
    Average linear kinetic energy   = 4.83892e-21
    Average internal energy         = 3.52312e-21
    Average total energy            = 8.36204e-21

ExecutionTime = 10.25 s  ClockTime = 12 s

fieldAverage fieldAverage1 write:
    Calculating averages

Time = 0.006987

    No collisions
Cloud name: dsmc
    Number of dsmc particles        = 2861
    Number of molecules             = 2.861e+21
    Mass in system                  = 0.000133037
    Average linear momentum         = (8.8979e-26 -9.94707e-26 2.72345e-25)
   |Average linear momentum|        = 3.03288e-25
    Average linear kinetic energy   = 4.83892e-21
    Average internal energy         = 3.52312e-21
    Average total energy            = 8.36204e-21

ExecutionTime = 10.25 s  ClockTime = 12 s

fieldAverage fieldAverage1 write:
    Calculating averages

Time = 0.006988

    No collisions
Cloud name: dsmc
    Number of dsmc particles        = 2861
    Number of molecules             = 2.861e+21
    Mass in system                  = 0.000133037
    Average linear momentum         = (8.8979e-26 -9.94707e-26 2.72345e-25)
   |Average linear momentum|        = 3.03288e-25
    Average linear kinetic energy   = 4.83892e-21
    Average internal energy         = 3.52312e-21
    Average total energy            = 8.36204e-21

ExecutionTime = 10.25 s  ClockTime = 12 s

fieldAverage fieldAverage1 write:
    Calculating averages

Time = 0.006989

    No collisions
Cloud name: dsmc
    Number of dsmc particles        = 2861
    Number of molecules             = 2.861e+21
    Mass in system                  = 0.000133037
    Average linear momentum         = (8.8979e-26 -9.94707e-26 2.72345e-25)
   |Average linear momentum|        = 3.03288e-25
    Average linear kinetic energy   = 4.83892e-21
    Average internal energy         = 3.52312e-21
    Average total energy            = 8.36204e-21

ExecutionTime = 10.25 s  ClockTime = 12 s

fieldAverage fieldAverage1 write:
    Calculating averages

Time = 0.00699

    No collisions
Cloud name: dsmc
    Number of dsmc particles        = 2861
    Number of molecules             = 2.861e+21
    Mass in system                  = 0.000133037
    Average linear momentum         = (8.8979e-26 -9.94707e-26 2.72345e-25)
   |Average linear momentum|        = 3.03288e-25
    Average linear kinetic energy   = 4.83892e-21
    Average internal energy         = 3.52312e-21
    Average total energy            = 8.36204e-21

ExecutionTime = 10.26 s  ClockTime = 12 s

fieldAverage fieldAverage1 write:
    Calculating averages

Time = 0.006991

    No collisions
Cloud name: dsmc
    Number of dsmc particles        = 2861
    Number of molecules             = 2.861e+21
    Mass in system                  = 0.000133037
    Average linear momentum         = (8.8979e-26 -9.94707e-26 2.72345e-25)
   |Average linear momentum|        = 3.03288e-25
    Average linear kinetic energy   = 4.83892e-21
    Average internal energy         = 3.52312e-21
    Average total energy            = 8.36204e-21

ExecutionTime = 10.26 s  ClockTime = 12 s

fieldAverage fieldAverage1 write:
    Calculating averages

Time = 0.006992

    No collisions
Cloud name: dsmc
    Number of dsmc particles        = 2861
    Number of molecules             = 2.861e+21
    Mass in system                  = 0.000133037
    Average linear momentum         = (8.8979e-26 -9.94707e-26 2.72345e-25)
   |Average linear momentum|        = 3.03288e-25
    Average linear kinetic energy   = 4.83892e-21
    Average internal energy         = 3.52312e-21
    Average total energy            = 8.36204e-21

ExecutionTime = 10.26 s  ClockTime = 12 s

fieldAverage fieldAverage1 write:
    Calculating averages

Time = 0.006993

    No collisions
Cloud name: dsmc
    Number of dsmc particles        = 2861
    Number of molecules             = 2.861e+21
    Mass in system                  = 0.000133037
    Average linear momentum         = (8.8979e-26 -9.94707e-26 2.72345e-25)
   |Average linear momentum|        = 3.03288e-25
    Average linear kinetic energy   = 4.83892e-21
    Average internal energy         = 3.52312e-21
    Average total energy            = 8.36204e-21

ExecutionTime = 10.26 s  ClockTime = 12 s

fieldAverage fieldAverage1 write:
    Calculating averages

Time = 0.006994

    No collisions
Cloud name: dsmc
    Number of dsmc particles        = 2861
    Number of molecules             = 2.861e+21
    Mass in system                  = 0.000133037
    Average linear momentum         = (8.8979e-26 -9.94707e-26 2.72345e-25)
   |Average linear momentum|        = 3.03288e-25
    Average linear kinetic energy   = 4.83892e-21
    Average internal energy         = 3.52312e-21
    Average total energy            = 8.36204e-21

ExecutionTime = 10.26 s  ClockTime = 12 s

fieldAverage fieldAverage1 write:
    Calculating averages

Time = 0.006995

    No collisions
Cloud name: dsmc
    Number of dsmc particles        = 2861
    Number of molecules             = 2.861e+21
    Mass in system                  = 0.000133037
    Average linear momentum         = (8.8979e-26 -9.94707e-26 2.72345e-25)
   |Average linear momentum|        = 3.03288e-25
    Average linear kinetic energy   = 4.83892e-21
    Average internal energy         = 3.52312e-21
    Average total energy            = 8.36204e-21

ExecutionTime = 10.26 s  ClockTime = 12 s

fieldAverage fieldAverage1 write:
    Calculating averages

Time = 0.006996

    No collisions
Cloud name: dsmc
    Number of dsmc particles        = 2861
    Number of molecules             = 2.861e+21
    Mass in system                  = 0.000133037
    Average linear momentum         = (8.8979e-26 -9.94707e-26 2.72345e-25)
   |Average linear momentum|        = 3.03288e-25
    Average linear kinetic energy   = 4.83892e-21
    Average internal energy         = 3.52312e-21
    Average total energy            = 8.36204e-21

ExecutionTime = 10.26 s  ClockTime = 12 s

fieldAverage fieldAverage1 write:
    Calculating averages

Time = 0.006997

    No collisions
Cloud name: dsmc
    Number of dsmc particles        = 2861
    Number of molecules             = 2.861e+21
    Mass in system                  = 0.000133037
    Average linear momentum         = (8.8979e-26 -9.94707e-26 2.72345e-25)
   |Average linear momentum|        = 3.03288e-25
    Average linear kinetic energy   = 4.83892e-21
    Average internal energy         = 3.52312e-21
    Average total energy            = 8.36204e-21

ExecutionTime = 10.26 s  ClockTime = 12 s

fieldAverage fieldAverage1 write:
    Calculating averages

Time = 0.006998

    No collisions
Cloud name: dsmc
    Number of dsmc particles        = 2861
    Number of molecules             = 2.861e+21
    Mass in system                  = 0.000133037
    Average linear momentum         = (8.8979e-26 -9.94707e-26 2.72345e-25)
   |Average linear momentum|        = 3.03288e-25
    Average linear kinetic energy   = 4.83892e-21
    Average internal energy         = 3.52312e-21
    Average total energy            = 8.36204e-21

ExecutionTime = 10.26 s  ClockTime = 12 s

fieldAverage fieldAverage1 write:
    Calculating averages

Time = 0.006999

    No collisions
Cloud name: dsmc
    Number of dsmc particles        = 2861
    Number of molecules             = 2.861e+21
    Mass in system                  = 0.000133037
    Average linear momentum         = (8.8979e-26 -9.94707e-26 2.72345e-25)
   |Average linear momentum|        = 3.03288e-25
    Average linear kinetic energy   = 4.83892e-21
    Average internal energy         = 3.52312e-21
    Average total energy            = 8.36204e-21

ExecutionTime = 10.26 s  ClockTime = 12 s

fieldAverage fieldAverage1 write:
    Calculating averages

Time = 0.007

    No collisions
Cloud name: dsmc
    Number of dsmc particles        = 2861
    Number of molecules             = 2.861e+21
    Mass in system                  = 0.000133037
    Average linear momentum         = (8.8979e-26 -9.94707e-26 2.72345e-25)
   |Average linear momentum|        = 3.03288e-25
    Average linear kinetic energy   = 4.83892e-21
    Average internal energy         = 3.52312e-21
    Average total energy            = 8.36204e-21

ExecutionTime = 10.33 s  ClockTime = 12 s

fieldAverage fieldAverage1 write:
    Calculating averages

    Writing average fields


Calculating dsmcFields.
    Calculating UMean field.
    Calculating translationalT field.
    Calculating internalT field.
    Calculating overallT field.
    Calculating pressure field.
    mag(UMean) max/min : 265.189 3.47234
    translationalT max/min : 368.64 119.119
    internalT max/min : 466.966 126.468
    overallT max/min : 361.392 130.833
    p max/min : 0.465683 0.0924225
dsmcFields written.

--> FOAM Warning :     functionObjects::mag mag(U) cannot find required object U of type volScalarField
--> FOAM Warning :     functionObjects::mag mag(U) cannot find required object U of type surfaceScalarField
--> FOAM Warning :     functionObjects::mag mag(U) cannot find required object U of type volVectorField
--> FOAM Warning :     functionObjects::mag mag(U) cannot find required object U of type surfaceVectorField
--> FOAM Warning :     functionObjects::mag mag(U) cannot find required object U of type volSphericalTensorField
--> FOAM Warning :     functionObjects::mag mag(U) cannot find required object U of type surfaceSphericalTensorField
--> FOAM Warning :     functionObjects::mag mag(U) cannot find required object U of type volSymmTensorField
--> FOAM Warning :     functionObjects::mag mag(U) cannot find required object U of type surfaceSymmTensorField
--> FOAM Warning :     functionObjects::mag mag(U) cannot find required object U of type volTensorField
--> FOAM Warning :     functionObjects::mag mag(U) cannot find required object U of type surfaceTensorField
--> FOAM Warning :     functionObjects::mag mag(U) failed to execute.
End

