/*---------------------------------------------------------------------------*\
  =========                 |
  \\      /  F ield         | OpenFOAM: The Open Source CFD Toolbox
   \\    /   O peration     | Website:  https://openfoam.org
    \\  /    A nd           | Version:  7
     \\/     M anipulation  |
\*---------------------------------------------------------------------------*/
Build  : 7-1ff648926f77
Exec   : /home/anthonygay1812/OpenFOAM/root-7/platforms/linux64GccDPInt32Opt/bin/dsmcFoamMod
Date   : Feb 15 2020
Time   : 00:04:10
Host   : "DESKTOP-KF81SG4"
PID    : 29787
I/O    : uncollated
Case   : /home/anthonygay1812/OpenFOAM/Working/dsmcShockTube
nProcs : 1
sigFpe : Enabling floating point exception trapping (FOAM_SIGFPE).
fileModificationChecking : Monitoring run-time modified files using timeStampMaster (fileModificationSkew 10)
allowSystemOperations : Allowing user-supplied system call operations

// * * * * * * * * * * * * * * * * * * * * * * * * * * * * * * * * * * * * * //
Create time

Create mesh for time = 0


Constructing dsmcCloud 
Selecting BinaryCollisionModel LarsenBorgnakkeVariableHardSphere
Selecting WallInteractionModel SpecularReflection
Selecting InflowBoundaryModel none

Constructing constant properties for
    N2

Starting time loop

fieldAverage fieldAverage1:
    Starting averaging at time 0

Time = 1e-06

    Collisions                      = 4381
    Acceptance rate                 = 0.989386

Evolve function was successful.
Cloud name: dsmc
    Number of dsmc particles        = 109040
    Number of molecules             = 1.0904e+22
    Mass in system                  = 0.000507036
    Average linear momentum         = (-8.24863e-28 -1.7899e-26 -2.12682e-27)
   |Average linear momentum|        = 1.80438e-26
    Average linear kinetic energy   = 6.21227e-21
    Average internal energy         = 4.12408e-21
    Average total energy            = 1.03364e-20
Info function was successful.

ExecutionTime = 1.25 s  ClockTime = 4 s

    Reading/initialising field rhoNMean
    Reading/initialising field rhoMMean
    Reading/initialising field dsmcRhoNMean
    Reading/initialising field momentumMean
    Reading/initialising field linearKEMean
    Reading/initialising field internalEMean
    Reading/initialising field iDofMean
    Reading/initialising field qMean
    Reading/initialising field fDMean
fieldAverage fieldAverage1 write:
    Calculating averages

Time = 2e-06

    Collisions                      = 6685
    Acceptance rate                 = 0.747094

Evolve function was successful.
Cloud name: dsmc
    Number of dsmc particles        = 109036
    Number of molecules             = 1.09036e+22
    Mass in system                  = 0.000507017
    Average linear momentum         = (-1.31631e-27 -1.75279e-26 -1.85721e-27)
   |Average linear momentum|        = 1.76751e-26
    Average linear kinetic energy   = 6.21092e-21
    Average internal energy         = 4.12519e-21
    Average total energy            = 1.03361e-20
Info function was successful.

ExecutionTime = 1.33 s  ClockTime = 4 s

fieldAverage fieldAverage1 write:
    Calculating averages

Time = 3e-06

    Collisions                      = 6810
    Acceptance rate                 = 0.702859

Evolve function was successful.
Cloud name: dsmc
    Number of dsmc particles        = 109031
    Number of molecules             = 1.09031e+22
    Mass in system                  = 0.000506994
    Average linear momentum         = (-1.85779e-27 -1.78428e-26 -1.81305e-27)
   |Average linear momentum|        = 1.80306e-26
    Average linear kinetic energy   = 6.21242e-21
    Average internal energy         = 4.12315e-21
    Average total energy            = 1.03356e-20
Info function was successful.

ExecutionTime = 1.4 s  ClockTime = 4 s

fieldAverage fieldAverage1 write:
    Calculating averages

Time = 4e-06

    Collisions                      = 6903
    Acceptance rate                 = 0.686047

Evolve function was successful.
Cloud name: dsmc
    Number of dsmc particles        = 109029
    Number of molecules             = 1.09029e+22
    Mass in system                  = 0.000506985
    Average linear momentum         = (-2.27657e-27 -1.78658e-26 -1.72214e-27)
   |Average linear momentum|        = 1.80924e-26
    Average linear kinetic energy   = 6.20903e-21
    Average internal energy         = 4.12636e-21
    Average total energy            = 1.03354e-20
Info function was successful.

ExecutionTime = 1.48 s  ClockTime = 4 s

fieldAverage fieldAverage1 write:
    Calculating averages

Time = 5e-06

    Collisions                      = 6903
    Acceptance rate                 = 0.673201

Evolve function was successful.
Cloud name: dsmc
    Number of dsmc particles        = 109027
    Number of molecules             = 1.09027e+22
    Mass in system                  = 0.000506976
    Average linear momentum         = (-2.3628e-27 -1.75117e-26 -1.65332e-27)
   |Average linear momentum|        = 1.77475e-26
    Average linear kinetic energy   = 6.20904e-21
    Average internal energy         = 4.1263e-21
    Average total energy            = 1.03353e-20
Info function was successful.

ExecutionTime = 1.56 s  ClockTime = 4 s

fieldAverage fieldAverage1 write:
    Calculating averages

Time = 6e-06

    Collisions                      = 6868
    Acceptance rate                 = 0.658296

Evolve function was successful.
Cloud name: dsmc
    Number of dsmc particles        = 109024
    Number of molecules             = 1.09024e+22
    Mass in system                  = 0.000506962
    Average linear momentum         = (-2.67081e-27 -1.73724e-26 -1.84379e-27)
   |Average linear momentum|        = 1.7673e-26
    Average linear kinetic energy   = 6.20481e-21
    Average internal energy         = 4.13041e-21
    Average total energy            = 1.03352e-20
Info function was successful.

ExecutionTime = 1.64 s  ClockTime = 4 s

fieldAverage fieldAverage1 write:
    Calculating averages

Time = 7e-06

    Collisions                      = 6914
    Acceptance rate                 = 0.658539

Evolve function was successful.
Cloud name: dsmc
    Number of dsmc particles        = 109024
    Number of molecules             = 1.09024e+22
    Mass in system                  = 0.000506962
    Average linear momentum         = (-2.67081e-27 -1.73724e-26 -1.84379e-27)
   |Average linear momentum|        = 1.7673e-26
    Average linear kinetic energy   = 6.20519e-21
    Average internal energy         = 4.13003e-21
    Average total energy            = 1.03352e-20
Info function was successful.

ExecutionTime = 1.72 s  ClockTime = 4 s

fieldAverage fieldAverage1 write:
    Calculating averages

Time = 8e-06

    Collisions                      = 6992
    Acceptance rate                 = 0.657947

Evolve function was successful.
Cloud name: dsmc
    Number of dsmc particles        = 109023
    Number of molecules             = 1.09023e+22
    Mass in system                  = 0.000506957
    Average linear momentum         = (-2.72958e-27 -1.73938e-26 -1.93428e-27)
   |Average linear momentum|        = 1.77126e-26
    Average linear kinetic energy   = 6.20688e-21
    Average internal energy         = 4.12842e-21
    Average total energy            = 1.03353e-20
Info function was successful.

ExecutionTime = 1.79 s  ClockTime = 4 s

fieldAverage fieldAverage1 write:
    Calculating averages

Time = 9e-06

    Collisions                      = 6928
    Acceptance rate                 = 0.648022

Evolve function was successful.
Cloud name: dsmc
    Number of dsmc particles        = 109020
    Number of molecules             = 1.0902e+22
    Mass in system                  = 0.000506943
    Average linear momentum         = (-3.07219e-27 -1.71651e-26 -1.79104e-27)
   |Average linear momentum|        = 1.75296e-26
    Average linear kinetic energy   = 6.20858e-21
    Average internal energy         = 4.12664e-21
    Average total energy            = 1.03352e-20
Info function was successful.

ExecutionTime = 1.87 s  ClockTime = 4 s

fieldAverage fieldAverage1 write:
    Calculating averages

Time = 1e-05

    Collisions                      = 6875
    Acceptance rate                 = 0.638584

Evolve function was successful.
Cloud name: dsmc
    Number of dsmc particles        = 109019
    Number of molecules             = 1.09019e+22
    Mass in system                  = 0.000506938
    Average linear momentum         = (-2.87125e-27 -1.70781e-26 -1.7864e-27)
   |Average linear momentum|        = 1.74096e-26
    Average linear kinetic energy   = 6.20905e-21
    Average internal energy         = 4.12611e-21
    Average total energy            = 1.03352e-20
Info function was successful.

ExecutionTime = 1.95 s  ClockTime = 4 s

fieldAverage fieldAverage1 write:
    Calculating averages

Time = 1.1e-05

    Collisions                      = 6945
    Acceptance rate                 = 0.641393

Evolve function was successful.
Cloud name: dsmc
    Number of dsmc particles        = 109017
    Number of molecules             = 1.09017e+22
    Mass in system                  = 0.000506929
    Average linear momentum         = (-3.16141e-27 -1.74931e-26 -1.55713e-27)
   |Average linear momentum|        = 1.78445e-26
    Average linear kinetic energy   = 6.20786e-21
    Average internal energy         = 4.12722e-21
    Average total energy            = 1.03351e-20
Info function was successful.

ExecutionTime = 2.01 s  ClockTime = 4 s

fieldAverage fieldAverage1 write:
    Calculating averages

Time = 1.2e-05

    Collisions                      = 6961
    Acceptance rate                 = 0.640092

Evolve function was successful.
Cloud name: dsmc
    Number of dsmc particles        = 109015
    Number of molecules             = 1.09015e+22
    Mass in system                  = 0.00050692
    Average linear momentum         = (-3.44512e-27 -1.76439e-26 -1.54013e-27)
   |Average linear momentum|        = 1.80429e-26
    Average linear kinetic energy   = 6.20956e-21
    Average internal energy         = 4.12556e-21
    Average total energy            = 1.03351e-20
Info function was successful.

ExecutionTime = 2.09 s  ClockTime = 4 s

fieldAverage fieldAverage1 write:
    Calculating averages

Time = 1.3e-05

    Collisions                      = 6997
    Acceptance rate                 = 0.640692

Evolve function was successful.
Cloud name: dsmc
    Number of dsmc particles        = 109013
    Number of molecules             = 1.09013e+22
    Mass in system                  = 0.00050691
    Average linear momentum         = (-3.82625e-27 -1.77454e-26 -1.52153e-27)
   |Average linear momentum|        = 1.82169e-26
    Average linear kinetic energy   = 6.2059e-21
    Average internal energy         = 4.12922e-21
    Average total energy            = 1.03351e-20
Info function was successful.

ExecutionTime = 2.14 s  ClockTime = 4 s

fieldAverage fieldAverage1 write:
    Calculating averages

Time = 1.4e-05

    Collisions                      = 6952
    Acceptance rate                 = 0.635931

Evolve function was successful.
Cloud name: dsmc
    Number of dsmc particles        = 109013
    Number of molecules             = 1.09013e+22
    Mass in system                  = 0.00050691
    Average linear momentum         = (-3.82625e-27 -1.77454e-26 -1.52153e-27)
   |Average linear momentum|        = 1.82169e-26
    Average linear kinetic energy   = 6.20465e-21
    Average internal energy         = 4.13047e-21
    Average total energy            = 1.03351e-20
Info function was successful.

ExecutionTime = 2.22 s  ClockTime = 5 s

fieldAverage fieldAverage1 write:
    Calculating averages

Time = 1.5e-05

    Collisions                      = 6917
    Acceptance rate                 = 0.628532

Evolve function was successful.
Cloud name: dsmc
    Number of dsmc particles        = 109008
    Number of molecules             = 1.09008e+22
    Mass in system                  = 0.000506887
    Average linear momentum         = (-4.22954e-27 -1.77405e-26 -1.46916e-27)
   |Average linear momentum|        = 1.82968e-26
    Average linear kinetic energy   = 6.20459e-21
    Average internal energy         = 4.1305e-21
    Average total energy            = 1.03351e-20
Info function was successful.

ExecutionTime = 2.29 s  ClockTime = 5 s

fieldAverage fieldAverage1 write:
    Calculating averages

Time = 1.6e-05

    Collisions                      = 7005
    Acceptance rate                 = 0.634683

Evolve function was successful.
Cloud name: dsmc
    Number of dsmc particles        = 109005
    Number of molecules             = 1.09005e+22
    Mass in system                  = 0.000506873
    Average linear momentum         = (-4.15669e-27 -1.75126e-26 -1.36606e-27)
   |Average linear momentum|        = 1.80509e-26
    Average linear kinetic energy   = 6.20283e-21
    Average internal energy         = 4.1322e-21
    Average total energy            = 1.0335e-20
Info function was successful.

ExecutionTime = 2.36 s  ClockTime = 5 s

fieldAverage fieldAverage1 write:
    Calculating averages

Time = 1.7e-05

    Collisions                      = 6904
    Acceptance rate                 = 0.623724

Evolve function was successful.
Cloud name: dsmc
    Number of dsmc particles        = 109004
    Number of molecules             = 1.09004e+22
    Mass in system                  = 0.000506869
    Average linear momentum         = (-4.02536e-27 -1.76051e-26 -1.15521e-27)
   |Average linear momentum|        = 1.80963e-26
    Average linear kinetic energy   = 6.20271e-21
    Average internal energy         = 4.1323e-21
    Average total energy            = 1.0335e-20
Info function was successful.

ExecutionTime = 2.44 s  ClockTime = 5 s

fieldAverage fieldAverage1 write:
    Calculating averages

Time = 1.8e-05

    Collisions                      = 6849
    Acceptance rate                 = 0.616971

Evolve function was successful.
Cloud name: dsmc
    Number of dsmc particles        = 108999
    Number of molecules             = 1.08999e+22
    Mass in system                  = 0.000506845
    Average linear momentum         = (-3.75504e-27 -1.75834e-26 -1.45553e-27)
   |Average linear momentum|        = 1.80387e-26
    Average linear kinetic energy   = 6.20366e-21
    Average internal energy         = 4.13106e-21
    Average total energy            = 1.03347e-20
Info function was successful.

ExecutionTime = 2.53 s  ClockTime = 5 s

fieldAverage fieldAverage1 write:
    Calculating averages

Time = 1.9e-05

    Collisions                      = 6872
    Acceptance rate                 = 0.617541

Evolve function was successful.
Cloud name: dsmc
    Number of dsmc particles        = 108994
    Number of molecules             = 1.08994e+22
    Mass in system                  = 0.000506822
    Average linear momentum         = (-4.61213e-27 -1.73933e-26 -1.1984e-27)
   |Average linear momentum|        = 1.80342e-26
    Average linear kinetic energy   = 6.20159e-21
    Average internal energy         = 4.13316e-21
    Average total energy            = 1.03347e-20
Info function was successful.

ExecutionTime = 2.62 s  ClockTime = 5 s

fieldAverage fieldAverage1 write:
    Calculating averages

Time = 2e-05

    Collisions                      = 6948
    Acceptance rate                 = 0.623195

Evolve function was successful.
Cloud name: dsmc
    Number of dsmc particles        = 108991
    Number of molecules             = 1.08991e+22
    Mass in system                  = 0.000506808
    Average linear momentum         = (-4.71411e-27 -1.75297e-26 -1.28651e-27)
   |Average linear momentum|        = 1.8198e-26
    Average linear kinetic energy   = 6.20075e-21
    Average internal energy         = 4.134e-21
    Average total energy            = 1.03347e-20
Info function was successful.

ExecutionTime = 2.72 s  ClockTime = 5 s

fieldAverage fieldAverage1 write:
    Calculating averages

Time = 2.1e-05

    Collisions                      = 6919
    Acceptance rate                 = 0.619482

Evolve function was successful.
Cloud name: dsmc
    Number of dsmc particles        = 108987
    Number of molecules             = 1.08987e+22
    Mass in system                  = 0.00050679
    Average linear momentum         = (-4.93851e-27 -1.74882e-26 -1.21831e-27)
   |Average linear momentum|        = 1.82129e-26
    Average linear kinetic energy   = 6.20288e-21
    Average internal energy         = 4.13182e-21
    Average total energy            = 1.03347e-20
Info function was successful.

ExecutionTime = 2.79 s  ClockTime = 5 s

fieldAverage fieldAverage1 write:
    Calculating averages

Time = 2.2e-05

    Collisions                      = 6956
    Acceptance rate                 = 0.619799

Evolve function was successful.
Cloud name: dsmc
    Number of dsmc particles        = 108985
    Number of molecules             = 1.08985e+22
    Mass in system                  = 0.00050678
    Average linear momentum         = (-5.18034e-27 -1.76343e-26 -1.38541e-27)
   |Average linear momentum|        = 1.84316e-26
    Average linear kinetic energy   = 6.20258e-21
    Average internal energy         = 4.13215e-21
    Average total energy            = 1.03347e-20
Info function was successful.

ExecutionTime = 2.87 s  ClockTime = 5 s

fieldAverage fieldAverage1 write:
    Calculating averages

Time = 2.3e-05

    Collisions                      = 6966
    Acceptance rate                 = 0.622965

Evolve function was successful.
Cloud name: dsmc
    Number of dsmc particles        = 108985
    Number of molecules             = 1.08985e+22
    Mass in system                  = 0.00050678
    Average linear momentum         = (-5.18034e-27 -1.76343e-26 -1.38541e-27)
   |Average linear momentum|        = 1.84316e-26
    Average linear kinetic energy   = 6.20044e-21
    Average internal energy         = 4.13429e-21
    Average total energy            = 1.03347e-20
Info function was successful.

ExecutionTime = 2.95 s  ClockTime = 5 s

fieldAverage fieldAverage1 write:
    Calculating averages

Time = 2.4e-05

    Collisions                      = 6941
    Acceptance rate                 = 0.617033

Evolve function was successful.
Cloud name: dsmc
    Number of dsmc particles        = 108984
    Number of molecules             = 1.08984e+22
    Mass in system                  = 0.000506776
    Average linear momentum         = (-5.31793e-27 -1.76481e-26 -1.42186e-27)
   |Average linear momentum|        = 1.84867e-26
    Average linear kinetic energy   = 6.2018e-21
    Average internal energy         = 4.13298e-21
    Average total energy            = 1.03348e-20
Info function was successful.

ExecutionTime = 3.04 s  ClockTime = 5 s

fieldAverage fieldAverage1 write:
    Calculating averages

Time = 2.5e-05

    Collisions                      = 6964
    Acceptance rate                 = 0.618582

Evolve function was successful.
Cloud name: dsmc
    Number of dsmc particles        = 108981
    Number of molecules             = 1.08981e+22
    Mass in system                  = 0.000506762
    Average linear momentum         = (-5.90842e-27 -1.75022e-26 -1.42411e-27)
   |Average linear momentum|        = 1.85274e-26
    Average linear kinetic energy   = 6.19905e-21
    Average internal energy         = 4.13566e-21
    Average total energy            = 1.03347e-20
Info function was successful.

ExecutionTime = 3.12 s  ClockTime = 5 s

fieldAverage fieldAverage1 write:
    Calculating averages

Time = 2.6e-05

    Collisions                      = 6954
    Acceptance rate                 = 0.616435

Evolve function was successful.
Cloud name: dsmc
    Number of dsmc particles        = 108980
    Number of molecules             = 1.0898e+22
    Mass in system                  = 0.000506757
    Average linear momentum         = (-5.7496e-27 -1.74012e-26 -1.40425e-27)
   |Average linear momentum|        = 1.83802e-26
    Average linear kinetic energy   = 6.19885e-21
    Average internal energy         = 4.13584e-21
    Average total energy            = 1.03347e-20
Info function was successful.

ExecutionTime = 3.22 s  ClockTime = 6 s

fieldAverage fieldAverage1 write:
    Calculating averages

Time = 2.7e-05

    Collisions                      = 6917
    Acceptance rate                 = 0.612016

Evolve function was successful.
Cloud name: dsmc
    Number of dsmc particles        = 108977
    Number of molecules             = 1.08977e+22
    Mass in system                  = 0.000506743
    Average linear momentum         = (-6.16252e-27 -1.7775e-26 -1.39814e-27)
   |Average linear momentum|        = 1.88649e-26
    Average linear kinetic energy   = 6.1998e-21
    Average internal energy         = 4.13488e-21
    Average total energy            = 1.03347e-20
Info function was successful.

ExecutionTime = 3.31 s  ClockTime = 6 s

fieldAverage fieldAverage1 write:
    Calculating averages

Time = 2.8e-05

    Collisions                      = 7000
    Acceptance rate                 = 0.617284

Evolve function was successful.
Cloud name: dsmc
    Number of dsmc particles        = 108976
    Number of molecules             = 1.08976e+22
    Mass in system                  = 0.000506738
    Average linear momentum         = (-6.21116e-27 -1.77959e-26 -1.37874e-27)
   |Average linear momentum|        = 1.8899e-26
    Average linear kinetic energy   = 6.19893e-21
    Average internal energy         = 4.13583e-21
    Average total energy            = 1.03348e-20
Info function was successful.

ExecutionTime = 3.4 s  ClockTime = 6 s

fieldAverage fieldAverage1 write:
    Calculating averages

Time = 2.9e-05

    Collisions                      = 6913
    Acceptance rate                 = 0.610366

Evolve function was successful.
Cloud name: dsmc
    Number of dsmc particles        = 108976
    Number of molecules             = 1.08976e+22
    Mass in system                  = 0.000506738
    Average linear momentum         = (-6.21116e-27 -1.77959e-26 -1.37874e-27)
   |Average linear momentum|        = 1.8899e-26
    Average linear kinetic energy   = 6.19937e-21
    Average internal energy         = 4.13539e-21
    Average total energy            = 1.03348e-20
Info function was successful.

ExecutionTime = 3.48 s  ClockTime = 6 s

fieldAverage fieldAverage1 write:
    Calculating averages

Time = 3e-05

    Collisions                      = 7019
    Acceptance rate                 = 0.617435

Evolve function was successful.
Cloud name: dsmc
    Number of dsmc particles        = 108971
    Number of molecules             = 1.08971e+22
    Mass in system                  = 0.000506715
    Average linear momentum         = (-6.3361e-27 -1.79541e-26 -1.32595e-27)
   |Average linear momentum|        = 1.90854e-26
    Average linear kinetic energy   = 6.19899e-21
    Average internal energy         = 4.13591e-21
    Average total energy            = 1.03349e-20
Info function was successful.

ExecutionTime = 3.58 s  ClockTime = 6 s

fieldAverage fieldAverage1 write:
    Calculating averages

Time = 3.1e-05

    Collisions                      = 6914
    Acceptance rate                 = 0.607717

Evolve function was successful.
Cloud name: dsmc
    Number of dsmc particles        = 108969
    Number of molecules             = 1.08969e+22
    Mass in system                  = 0.000506706
    Average linear momentum         = (-6.3747e-27 -1.782e-26 -1.38257e-27)
   |Average linear momentum|        = 1.89763e-26
    Average linear kinetic energy   = 6.20131e-21
    Average internal energy         = 4.13364e-21
    Average total energy            = 1.0335e-20
Info function was successful.

ExecutionTime = 3.64 s  ClockTime = 6 s

fieldAverage fieldAverage1 write:
    Calculating averages

Time = 3.2e-05

    Collisions                      = 6844
    Acceptance rate                 = 0.601565

Evolve function was successful.
Cloud name: dsmc
    Number of dsmc particles        = 108967
    Number of molecules             = 1.08967e+22
    Mass in system                  = 0.000506697
    Average linear momentum         = (-6.3223e-27 -1.7631e-26 -1.30369e-27)
   |Average linear momentum|        = 1.87756e-26
    Average linear kinetic energy   = 6.2032e-21
    Average internal energy         = 4.13184e-21
    Average total energy            = 1.0335e-20
Info function was successful.

ExecutionTime = 3.73 s  ClockTime = 6 s

fieldAverage fieldAverage1 write:
    Calculating averages

Time = 3.3e-05

    Collisions                      = 6890
    Acceptance rate                 = 0.606301

Evolve function was successful.
Cloud name: dsmc
    Number of dsmc particles        = 108965
    Number of molecules             = 1.08965e+22
    Mass in system                  = 0.000506687
    Average linear momentum         = (-6.40252e-27 -1.79731e-26 -1.43293e-27)
   |Average linear momentum|        = 1.91331e-26
    Average linear kinetic energy   = 6.20515e-21
    Average internal energy         = 4.12995e-21
    Average total energy            = 1.03351e-20
Info function was successful.

ExecutionTime = 3.79 s  ClockTime = 6 s

fieldAverage fieldAverage1 write:
    Calculating averages

Time = 3.4e-05

    Collisions                      = 6945
    Acceptance rate                 = 0.608677

Evolve function was successful.
Cloud name: dsmc
    Number of dsmc particles        = 108960
    Number of molecules             = 1.0896e+22
    Mass in system                  = 0.000506664
    Average linear momentum         = (-7.4661e-27 -1.76668e-26 -1.29479e-27)
   |Average linear momentum|        = 1.92232e-26
    Average linear kinetic energy   = 6.20408e-21
    Average internal energy         = 4.13063e-21
    Average total energy            = 1.03347e-20
Info function was successful.

ExecutionTime = 3.88 s  ClockTime = 6 s

fieldAverage fieldAverage1 write:
    Calculating averages

Time = 3.5e-05

    Collisions                      = 6960
    Acceptance rate                 = 0.609297

Evolve function was successful.
Cloud name: dsmc
    Number of dsmc particles        = 108957
    Number of molecules             = 1.08957e+22
    Mass in system                  = 0.00050665
    Average linear momentum         = (-7.77852e-27 -1.73201e-26 -1.46852e-27)
   |Average linear momentum|        = 1.90433e-26
    Average linear kinetic energy   = 6.20327e-21
    Average internal energy         = 4.13115e-21
    Average total energy            = 1.03344e-20
Info function was successful.

ExecutionTime = 3.96 s  ClockTime = 6 s

fieldAverage fieldAverage1 write:
    Calculating averages

Time = 3.6e-05

    Collisions                      = 6926
    Acceptance rate                 = 0.60542

Evolve function was successful.
Cloud name: dsmc
    Number of dsmc particles        = 108954
    Number of molecules             = 1.08954e+22
    Mass in system                  = 0.000506636
    Average linear momentum         = (-8.07967e-27 -1.74551e-26 -1.60943e-27)
   |Average linear momentum|        = 1.93016e-26
    Average linear kinetic energy   = 6.20206e-21
    Average internal energy         = 4.13236e-21
    Average total energy            = 1.03344e-20
Info function was successful.

ExecutionTime = 4.04 s  ClockTime = 6 s

fieldAverage fieldAverage1 write:
    Calculating averages

Time = 3.7e-05

    Collisions                      = 6952
    Acceptance rate                 = 0.607958

Evolve function was successful.
Cloud name: dsmc
    Number of dsmc particles        = 108951
    Number of molecules             = 1.08951e+22
    Mass in system                  = 0.000506622
    Average linear momentum         = (-8.50762e-27 -1.75006e-26 -1.82645e-27)
   |Average linear momentum|        = 1.95445e-26
    Average linear kinetic energy   = 6.20379e-21
    Average internal energy         = 4.13074e-21
    Average total energy            = 1.03345e-20
Info function was successful.

ExecutionTime = 4.12 s  ClockTime = 6 s

fieldAverage fieldAverage1 write:
    Calculating averages

Time = 3.8e-05

    Collisions                      = 6848
    Acceptance rate                 = 0.598392

Evolve function was successful.
Cloud name: dsmc
    Number of dsmc particles        = 108949
    Number of molecules             = 1.08949e+22
    Mass in system                  = 0.000506613
    Average linear momentum         = (-8.98712e-27 -1.76952e-26 -1.78474e-27)
   |Average linear momentum|        = 1.99268e-26
    Average linear kinetic energy   = 6.20389e-21
    Average internal energy         = 4.13054e-21
    Average total energy            = 1.03344e-20
Info function was successful.

ExecutionTime = 4.2 s  ClockTime = 6 s

fieldAverage fieldAverage1 write:
    Calculating averages

Time = 3.9e-05

    Collisions                      = 6924
    Acceptance rate                 = 0.605404

Evolve function was successful.
Cloud name: dsmc
    Number of dsmc particles        = 108946
    Number of molecules             = 1.08946e+22
    Mass in system                  = 0.000506599
    Average linear momentum         = (-8.83153e-27 -1.76601e-26 -1.68923e-27)
   |Average linear momentum|        = 1.98174e-26
    Average linear kinetic energy   = 6.20591e-21
    Average internal energy         = 4.12856e-21
    Average total energy            = 1.03345e-20
Info function was successful.

ExecutionTime = 4.27 s  ClockTime = 7 s

fieldAverage fieldAverage1 write:
    Calculating averages

Time = 4e-05

    Collisions                      = 6975
    Acceptance rate                 = 0.606786

Evolve function was successful.
Cloud name: dsmc
    Number of dsmc particles        = 108942
    Number of molecules             = 1.08942e+22
    Mass in system                  = 0.00050658
    Average linear momentum         = (-9.8813e-27 -1.76341e-26 -1.48674e-27)
   |Average linear momentum|        = 2.02685e-26
    Average linear kinetic energy   = 6.2077e-21
    Average internal energy         = 4.12636e-21
    Average total energy            = 1.03341e-20
Info function was successful.

ExecutionTime = 4.35 s  ClockTime = 7 s

fieldAverage fieldAverage1 write:
    Calculating averages

Time = 4.1e-05

    Collisions                      = 6906
    Acceptance rate                 = 0.603249

Evolve function was successful.
Cloud name: dsmc
    Number of dsmc particles        = 108937
    Number of molecules             = 1.08937e+22
    Mass in system                  = 0.000506557
    Average linear momentum         = (-1.08087e-26 -1.76921e-26 -1.37717e-27)
   |Average linear momentum|        = 2.07783e-26
    Average linear kinetic energy   = 6.20887e-21
    Average internal energy         = 4.12496e-21
    Average total energy            = 1.03338e-20
Info function was successful.

ExecutionTime = 4.41 s  ClockTime = 7 s

fieldAverage fieldAverage1 write:
    Calculating averages

Time = 4.2e-05

    Collisions                      = 6942
    Acceptance rate                 = 0.60402

Evolve function was successful.
Cloud name: dsmc
    Number of dsmc particles        = 108934
    Number of molecules             = 1.08934e+22
    Mass in system                  = 0.000506543
    Average linear momentum         = (-1.12223e-26 -1.79098e-26 -1.45869e-27)
   |Average linear momentum|        = 2.11856e-26
    Average linear kinetic energy   = 6.20797e-21
    Average internal energy         = 4.12576e-21
    Average total energy            = 1.03337e-20
Info function was successful.

ExecutionTime = 4.51 s  ClockTime = 7 s

fieldAverage fieldAverage1 write:
    Calculating averages

Time = 4.3e-05

    Collisions                      = 7061
    Acceptance rate                 = 0.614321

Evolve function was successful.
Cloud name: dsmc
    Number of dsmc particles        = 108931
    Number of molecules             = 1.08931e+22
    Mass in system                  = 0.000506529
    Average linear momentum         = (-1.17549e-26 -1.79951e-26 -1.43454e-27)
   |Average linear momentum|        = 2.15421e-26
    Average linear kinetic energy   = 6.20986e-21
    Average internal energy         = 4.12387e-21
    Average total energy            = 1.03337e-20
Info function was successful.

ExecutionTime = 4.59 s  ClockTime = 7 s

fieldAverage fieldAverage1 write:
    Calculating averages

Time = 4.4e-05

    Collisions                      = 6969
    Acceptance rate                 = 0.607056

Evolve function was successful.
Cloud name: dsmc
    Number of dsmc particles        = 108928
    Number of molecules             = 1.08928e+22
    Mass in system                  = 0.000506515
    Average linear momentum         = (-1.17541e-26 -1.77595e-26 -1.69003e-27)
   |Average linear momentum|        = 2.13639e-26
    Average linear kinetic energy   = 6.21466e-21
    Average internal energy         = 4.11904e-21
    Average total energy            = 1.03337e-20
Info function was successful.

ExecutionTime = 4.66 s  ClockTime = 7 s

fieldAverage fieldAverage1 write:
    Calculating averages

Time = 4.5e-05

    Collisions                      = 6917
    Acceptance rate                 = 0.600017

Evolve function was successful.
Cloud name: dsmc
    Number of dsmc particles        = 108923
    Number of molecules             = 1.08923e+22
    Mass in system                  = 0.000506492
    Average linear momentum         = (-1.20998e-26 -1.80708e-26 -1.53636e-27)
   |Average linear momentum|        = 2.18019e-26
    Average linear kinetic energy   = 6.21313e-21
    Average internal energy         = 4.1207e-21
    Average total energy            = 1.03338e-20
Info function was successful.

ExecutionTime = 4.73 s  ClockTime = 7 s

fieldAverage fieldAverage1 write:
    Calculating averages

Time = 4.6e-05

    Collisions                      = 6927
    Acceptance rate                 = 0.600937

Evolve function was successful.
Cloud name: dsmc
    Number of dsmc particles        = 108922
    Number of molecules             = 1.08922e+22
    Mass in system                  = 0.000506487
    Average linear momentum         = (-1.17302e-26 -1.80604e-26 -1.60444e-27)
   |Average linear momentum|        = 2.15952e-26
    Average linear kinetic energy   = 6.20921e-21
    Average internal energy         = 4.12441e-21
    Average total energy            = 1.03336e-20
Info function was successful.

ExecutionTime = 4.82 s  ClockTime = 7 s

fieldAverage fieldAverage1 write:
    Calculating averages

Time = 4.7e-05

    Collisions                      = 6936
    Acceptance rate                 = 0.601822

Evolve function was successful.
Cloud name: dsmc
    Number of dsmc particles        = 108920
    Number of molecules             = 1.0892e+22
    Mass in system                  = 0.000506478
    Average linear momentum         = (-1.20049e-26 -1.79581e-26 -1.69126e-27)
   |Average linear momentum|        = 2.16673e-26
    Average linear kinetic energy   = 6.20856e-21
    Average internal energy         = 4.12502e-21
    Average total energy            = 1.03336e-20
Info function was successful.

ExecutionTime = 4.9 s  ClockTime = 7 s

fieldAverage fieldAverage1 write:
    Calculating averages

Time = 4.8e-05

    Collisions                      = 6868
    Acceptance rate                 = 0.595457

Evolve function was successful.
Cloud name: dsmc
    Number of dsmc particles        = 108917
    Number of molecules             = 1.08917e+22
    Mass in system                  = 0.000506464
    Average linear momentum         = (-1.21857e-26 -1.80274e-26 -1.42143e-27)
   |Average linear momentum|        = 2.18059e-26
    Average linear kinetic energy   = 6.20783e-21
    Average internal energy         = 4.12564e-21
    Average total energy            = 1.03335e-20
Info function was successful.

ExecutionTime = 4.98 s  ClockTime = 7 s

fieldAverage fieldAverage1 write:
    Calculating averages

Time = 4.9e-05

    Collisions                      = 6965
    Acceptance rate                 = 0.603605

Evolve function was successful.
Cloud name: dsmc
    Number of dsmc particles        = 108916
    Number of molecules             = 1.08916e+22
    Mass in system                  = 0.000506459
    Average linear momentum         = (-1.2218e-26 -1.80951e-26 -1.46485e-27)
   |Average linear momentum|        = 2.18828e-26
    Average linear kinetic energy   = 6.20678e-21
    Average internal energy         = 4.12675e-21
    Average total energy            = 1.03335e-20
Info function was successful.

ExecutionTime = 5.06 s  ClockTime = 7 s

fieldAverage fieldAverage1 write:
    Calculating averages

Time = 5e-05

    Collisions                      = 6929
    Acceptance rate                 = 0.599343

Evolve function was successful.
Cloud name: dsmc
    Number of dsmc particles        = 108911
    Number of molecules             = 1.08911e+22
    Mass in system                  = 0.000506436
    Average linear momentum         = (-1.2777e-26 -1.81019e-26 -1.7282e-27)
   |Average linear momentum|        = 2.22243e-26
    Average linear kinetic energy   = 6.21122e-21
    Average internal energy         = 4.12215e-21
    Average total energy            = 1.03334e-20
Info function was successful.

ExecutionTime = 5.11 s  ClockTime = 7 s

fieldAverage fieldAverage1 write:
    Calculating averages

Time = 5.1e-05

    Collisions                      = 6964
    Acceptance rate                 = 0.60237

Evolve function was successful.
Cloud name: dsmc
    Number of dsmc particles        = 108909
    Number of molecules             = 1.08909e+22
    Mass in system                  = 0.000506427
    Average linear momentum         = (-1.31987e-26 -1.77663e-26 -1.48768e-27)
   |Average linear momentum|        = 2.21824e-26
    Average linear kinetic energy   = 6.21294e-21
    Average internal energy         = 4.12025e-21
    Average total energy            = 1.03332e-20
Info function was successful.

ExecutionTime = 5.18 s  ClockTime = 8 s

fieldAverage fieldAverage1 write:
    Calculating averages

Time = 5.2e-05

    Collisions                      = 6908
    Acceptance rate                 = 0.597681

Evolve function was successful.
Cloud name: dsmc
    Number of dsmc particles        = 108905
    Number of molecules             = 1.08905e+22
    Mass in system                  = 0.000506408
    Average linear momentum         = (-1.3813e-26 -1.79678e-26 -2.07392e-27)
   |Average linear momentum|        = 2.27583e-26
    Average linear kinetic energy   = 6.21258e-21
    Average internal energy         = 4.12055e-21
    Average total energy            = 1.03331e-20
Info function was successful.

ExecutionTime = 5.26 s  ClockTime = 8 s

fieldAverage fieldAverage1 write:
    Calculating averages

Time = 5.3e-05

    Collisions                      = 6945
    Acceptance rate                 = 0.598862

Evolve function was successful.
Cloud name: dsmc
    Number of dsmc particles        = 108903
    Number of molecules             = 1.08903e+22
    Mass in system                  = 0.000506399
    Average linear momentum         = (-1.41271e-26 -1.7748e-26 -2.21836e-27)
   |Average linear momentum|        = 2.27923e-26
    Average linear kinetic energy   = 6.21359e-21
    Average internal energy         = 4.11945e-21
    Average total energy            = 1.0333e-20
Info function was successful.

ExecutionTime = 5.31 s  ClockTime = 8 s

fieldAverage fieldAverage1 write:
    Calculating averages

Time = 5.4e-05

    Collisions                      = 6973
    Acceptance rate                 = 0.601069

Evolve function was successful.
Cloud name: dsmc
    Number of dsmc particles        = 108900
    Number of molecules             = 1.089e+22
    Mass in system                  = 0.000506385
    Average linear momentum         = (-1.44135e-26 -1.75323e-26 -2.17769e-27)
   |Average linear momentum|        = 2.28007e-26
    Average linear kinetic energy   = 6.20966e-21
    Average internal energy         = 4.12329e-21
    Average total energy            = 1.0333e-20
Info function was successful.

ExecutionTime = 5.39 s  ClockTime = 8 s

fieldAverage fieldAverage1 write:
    Calculating averages

Time = 5.5e-05

    Collisions                      = 6992
    Acceptance rate                 = 0.602863

Evolve function was successful.
Cloud name: dsmc
    Number of dsmc particles        = 108898
    Number of molecules             = 1.08898e+22
    Mass in system                  = 0.000506376
    Average linear momentum         = (-1.4635e-26 -1.76955e-26 -2.13992e-27)
   |Average linear momentum|        = 2.30628e-26
    Average linear kinetic energy   = 6.21066e-21
    Average internal energy         = 4.12233e-21
    Average total energy            = 1.0333e-20
Info function was successful.

ExecutionTime = 5.47 s  ClockTime = 8 s

fieldAverage fieldAverage1 write:
    Calculating averages

Time = 5.6e-05

    Collisions                      = 6891
    Acceptance rate                 = 0.594616

Evolve function was successful.
Cloud name: dsmc
    Number of dsmc particles        = 108893
    Number of molecules             = 1.08893e+22
    Mass in system                  = 0.000506352
    Average linear momentum         = (-1.51118e-26 -1.72772e-26 -1.81652e-27)
   |Average linear momentum|        = 2.30254e-26
    Average linear kinetic energy   = 6.21092e-21
    Average internal energy         = 4.12207e-21
    Average total energy            = 1.0333e-20
Info function was successful.

ExecutionTime = 5.57 s  ClockTime = 8 s

fieldAverage fieldAverage1 write:
    Calculating averages

Time = 5.7e-05

    Collisions                      = 6934
    Acceptance rate                 = 0.597141

Evolve function was successful.
Cloud name: dsmc
    Number of dsmc particles        = 108888
    Number of molecules             = 1.08888e+22
    Mass in system                  = 0.000506329
    Average linear momentum         = (-1.54844e-26 -1.7205e-26 -1.91693e-27)
   |Average linear momentum|        = 2.32261e-26
    Average linear kinetic energy   = 6.20928e-21
    Average internal energy         = 4.12382e-21
    Average total energy            = 1.03331e-20
Info function was successful.

ExecutionTime = 5.65 s  ClockTime = 8 s

fieldAverage fieldAverage1 write:
    Calculating averages

Time = 5.8e-05

    Collisions                      = 6883
    Acceptance rate                 = 0.592341

Evolve function was successful.
Cloud name: dsmc
    Number of dsmc particles        = 108884
    Number of molecules             = 1.08884e+22
    Mass in system                  = 0.000506311
    Average linear momentum         = (-1.60206e-26 -1.71248e-26 -2.2623e-27)
   |Average linear momentum|        = 2.35592e-26
    Average linear kinetic energy   = 6.20794e-21
    Average internal energy         = 4.12522e-21
    Average total energy            = 1.03332e-20
Info function was successful.

ExecutionTime = 5.73 s  ClockTime = 8 s

fieldAverage fieldAverage1 write:
    Calculating averages

Time = 5.9e-05

    Collisions                      = 6917
    Acceptance rate                 = 0.596242

Evolve function was successful.
Cloud name: dsmc
    Number of dsmc particles        = 108880
    Number of molecules             = 1.0888e+22
    Mass in system                  = 0.000506292
    Average linear momentum         = (-1.62403e-26 -1.70813e-26 -2.14693e-27)
   |Average linear momentum|        = 2.36671e-26
    Average linear kinetic energy   = 6.20882e-21
    Average internal energy         = 4.12455e-21
    Average total energy            = 1.03334e-20
Info function was successful.

ExecutionTime = 5.81 s  ClockTime = 8 s

fieldAverage fieldAverage1 write:
    Calculating averages

Time = 6e-05

    Collisions                      = 6897
    Acceptance rate                 = 0.591966

Evolve function was successful.
Cloud name: dsmc
    Number of dsmc particles        = 108879
    Number of molecules             = 1.08879e+22
    Mass in system                  = 0.000506287
    Average linear momentum         = (-1.64721e-26 -1.71021e-26 -2.19957e-27)
   |Average linear momentum|        = 2.38463e-26
    Average linear kinetic energy   = 6.20708e-21
    Average internal energy         = 4.12627e-21
    Average total energy            = 1.03334e-20
Info function was successful.

ExecutionTime = 5.89 s  ClockTime = 8 s

fieldAverage fieldAverage1 write:
    Calculating averages

Time = 6.1e-05

    Collisions                      = 6913
    Acceptance rate                 = 0.594207

Evolve function was successful.
Cloud name: dsmc
    Number of dsmc particles        = 108876
    Number of molecules             = 1.08876e+22
    Mass in system                  = 0.000506273
    Average linear momentum         = (-1.71001e-26 -1.72594e-26 -1.87258e-27)
   |Average linear momentum|        = 2.43681e-26
    Average linear kinetic energy   = 6.20228e-21
    Average internal energy         = 4.13098e-21
    Average total energy            = 1.03333e-20
Info function was successful.

ExecutionTime = 5.97 s  ClockTime = 8 s

fieldAverage fieldAverage1 write:
    Calculating averages

Time = 6.2e-05

    Collisions                      = 6903
    Acceptance rate                 = 0.592939

Evolve function was successful.
Cloud name: dsmc
    Number of dsmc particles        = 108872
    Number of molecules             = 1.08872e+22
    Mass in system                  = 0.000506255
    Average linear momentum         = (-1.67586e-26 -1.72432e-26 -2.09996e-27)
   |Average linear momentum|        = 2.41369e-26
    Average linear kinetic energy   = 6.20482e-21
    Average internal energy         = 4.12836e-21
    Average total energy            = 1.03332e-20
Info function was successful.

ExecutionTime = 6.04 s  ClockTime = 8 s

fieldAverage fieldAverage1 write:
    Calculating averages

Time = 6.3e-05

    Collisions                      = 6898
    Acceptance rate                 = 0.591494

Evolve function was successful.
Cloud name: dsmc
    Number of dsmc particles        = 108868
    Number of molecules             = 1.08868e+22
    Mass in system                  = 0.000506236
    Average linear momentum         = (-1.73783e-26 -1.7173e-26 -2.09266e-27)
   |Average linear momentum|        = 2.45214e-26
    Average linear kinetic energy   = 6.2053e-21
    Average internal energy         = 4.12767e-21
    Average total energy            = 1.0333e-20
Info function was successful.

ExecutionTime = 6.12 s  ClockTime = 8 s

fieldAverage fieldAverage1 write:
    Calculating averages

Time = 6.4e-05

    Collisions                      = 6950
    Acceptance rate                 = 0.597438

Evolve function was successful.
Cloud name: dsmc
    Number of dsmc particles        = 108867
    Number of molecules             = 1.08867e+22
    Mass in system                  = 0.000506232
    Average linear momentum         = (-1.75926e-26 -1.74248e-26 -2.12936e-27)
   |Average linear momentum|        = 2.48527e-26
    Average linear kinetic energy   = 6.20557e-21
    Average internal energy         = 4.12734e-21
    Average total energy            = 1.03329e-20
Info function was successful.

ExecutionTime = 6.22 s  ClockTime = 9 s

fieldAverage fieldAverage1 write:
    Calculating averages

Time = 6.5e-05

    Collisions                      = 6993
    Acceptance rate                 = 0.599126

Evolve function was successful.
Cloud name: dsmc
    Number of dsmc particles        = 108865
    Number of molecules             = 1.08865e+22
    Mass in system                  = 0.000506222
    Average linear momentum         = (-1.7316e-26 -1.75134e-26 -2.10888e-27)
   |Average linear momentum|        = 2.47187e-26
    Average linear kinetic energy   = 6.20736e-21
    Average internal energy         = 4.12561e-21
    Average total energy            = 1.0333e-20
Info function was successful.

ExecutionTime = 6.29 s  ClockTime = 9 s

fieldAverage fieldAverage1 write:
    Calculating averages

Time = 6.6e-05

    Collisions                      = 6847
    Acceptance rate                 = 0.587524

Evolve function was successful.
Cloud name: dsmc
    Number of dsmc particles        = 108862
    Number of molecules             = 1.08862e+22
    Mass in system                  = 0.000506208
    Average linear momentum         = (-1.72301e-26 -1.73091e-26 -1.99606e-27)
   |Average linear momentum|        = 2.45044e-26
    Average linear kinetic energy   = 6.20693e-21
    Average internal energy         = 4.12596e-21
    Average total energy            = 1.03329e-20
Info function was successful.

ExecutionTime = 6.36 s  ClockTime = 9 s

fieldAverage fieldAverage1 write:
    Calculating averages

Time = 6.7e-05

    Collisions                      = 6952
    Acceptance rate                 = 0.594595

Evolve function was successful.
Cloud name: dsmc
    Number of dsmc particles        = 108860
    Number of molecules             = 1.0886e+22
    Mass in system                  = 0.000506199
    Average linear momentum         = (-1.7417e-26 -1.71132e-26 -1.78389e-27)
   |Average linear momentum|        = 2.44826e-26
    Average linear kinetic energy   = 6.20508e-21
    Average internal energy         = 4.12769e-21
    Average total energy            = 1.03328e-20
Info function was successful.

ExecutionTime = 6.43 s  ClockTime = 9 s

fieldAverage fieldAverage1 write:
    Calculating averages

Time = 6.8e-05

    Collisions                      = 6890
    Acceptance rate                 = 0.590453

Evolve function was successful.
Cloud name: dsmc
    Number of dsmc particles        = 108859
    Number of molecules             = 1.08859e+22
    Mass in system                  = 0.000506194
    Average linear momentum         = (-1.74937e-26 -1.70923e-26 -1.8076e-27)
   |Average linear momentum|        = 2.45243e-26
    Average linear kinetic energy   = 6.20384e-21
    Average internal energy         = 4.129e-21
    Average total energy            = 1.03328e-20
Info function was successful.

ExecutionTime = 6.51 s  ClockTime = 9 s

fieldAverage fieldAverage1 write:
    Calculating averages

Time = 6.9e-05

    Collisions                      = 7016
    Acceptance rate                 = 0.599248

Evolve function was successful.
Cloud name: dsmc
    Number of dsmc particles        = 108856
    Number of molecules             = 1.08856e+22
    Mass in system                  = 0.00050618
    Average linear momentum         = (-1.75813e-26 -1.71234e-26 -1.8474e-27)
   |Average linear momentum|        = 2.46115e-26
    Average linear kinetic energy   = 6.20402e-21
    Average internal energy         = 4.12891e-21
    Average total energy            = 1.03329e-20
Info function was successful.

ExecutionTime = 6.59 s  ClockTime = 9 s

fieldAverage fieldAverage1 write:
    Calculating averages

Time = 7e-05

    Collisions                      = 6961
    Acceptance rate                 = 0.595823

Evolve function was successful.
Cloud name: dsmc
    Number of dsmc particles        = 108855
    Number of molecules             = 1.08855e+22
    Mass in system                  = 0.000506176
    Average linear momentum         = (-1.78093e-26 -1.71175e-26 -1.89622e-27)
   |Average linear momentum|        = 2.47745e-26
    Average linear kinetic energy   = 6.20623e-21
    Average internal energy         = 4.12673e-21
    Average total energy            = 1.0333e-20
Info function was successful.

ExecutionTime = 6.68 s  ClockTime = 9 s

fieldAverage fieldAverage1 write:
    Calculating averages

Time = 7.1e-05

    Collisions                      = 6932
    Acceptance rate                 = 0.592935

Evolve function was successful.
Cloud name: dsmc
    Number of dsmc particles        = 108854
    Number of molecules             = 1.08854e+22
    Mass in system                  = 0.000506171
    Average linear momentum         = (-1.80339e-26 -1.71492e-26 -1.86096e-27)
   |Average linear momentum|        = 2.49556e-26
    Average linear kinetic energy   = 6.20578e-21
    Average internal energy         = 4.12719e-21
    Average total energy            = 1.0333e-20
Info function was successful.

ExecutionTime = 6.76 s  ClockTime = 9 s

fieldAverage fieldAverage1 write:
    Calculating averages

Time = 7.2e-05

    Collisions                      = 6949
    Acceptance rate                 = 0.593272

Evolve function was successful.
Cloud name: dsmc
    Number of dsmc particles        = 108846
    Number of molecules             = 1.08846e+22
    Mass in system                  = 0.000506134
    Average linear momentum         = (-1.89159e-26 -1.71532e-26 -1.64831e-27)
   |Average linear momentum|        = 2.55883e-26
    Average linear kinetic energy   = 6.20684e-21
    Average internal energy         = 4.12584e-21
    Average total energy            = 1.03327e-20
Info function was successful.

ExecutionTime = 6.84 s  ClockTime = 9 s

fieldAverage fieldAverage1 write:
    Calculating averages

Time = 7.3e-05

    Collisions                      = 6818
    Acceptance rate                 = 0.582685

Evolve function was successful.
Cloud name: dsmc
    Number of dsmc particles        = 108845
    Number of molecules             = 1.08845e+22
    Mass in system                  = 0.000506129
    Average linear momentum         = (-1.91675e-26 -1.70439e-26 -1.56953e-27)
   |Average linear momentum|        = 2.56973e-26
    Average linear kinetic energy   = 6.20637e-21
    Average internal energy         = 4.12629e-21
    Average total energy            = 1.03327e-20
Info function was successful.

ExecutionTime = 6.92 s  ClockTime = 9 s

fieldAverage fieldAverage1 write:
    Calculating averages

Time = 7.4e-05

    Collisions                      = 6979
    Acceptance rate                 = 0.596445

Evolve function was successful.
Cloud name: dsmc
    Number of dsmc particles        = 108841
    Number of molecules             = 1.08841e+22
    Mass in system                  = 0.000506111
    Average linear momentum         = (-1.94946e-26 -1.69893e-26 -1.71338e-27)
   |Average linear momentum|        = 2.59155e-26
    Average linear kinetic energy   = 6.20875e-21
    Average internal energy         = 4.12386e-21
    Average total energy            = 1.03326e-20
Info function was successful.

ExecutionTime = 7 s  ClockTime = 9 s

fieldAverage fieldAverage1 write:
    Calculating averages

Time = 7.5e-05

    Collisions                      = 6963
    Acceptance rate                 = 0.592999

Evolve function was successful.
Cloud name: dsmc
    Number of dsmc particles        = 108839
    Number of molecules             = 1.08839e+22
    Mass in system                  = 0.000506101
    Average linear momentum         = (-1.98662e-26 -1.7027e-26 -1.79914e-27)
   |Average linear momentum|        = 2.62263e-26
    Average linear kinetic energy   = 6.21102e-21
    Average internal energy         = 4.12166e-21
    Average total energy            = 1.03327e-20
Info function was successful.

ExecutionTime = 7.07 s  ClockTime = 9 s

fieldAverage fieldAverage1 write:
    Calculating averages

Time = 7.6e-05

    Collisions                      = 6967
    Acceptance rate                 = 0.594454

Evolve function was successful.
Cloud name: dsmc
    Number of dsmc particles        = 108835
    Number of molecules             = 1.08835e+22
    Mass in system                  = 0.000506083
    Average linear momentum         = (-2.10633e-26 -1.71238e-26 -2.18562e-27)
   |Average linear momentum|        = 2.72335e-26
    Average linear kinetic energy   = 6.2096e-21
    Average internal energy         = 4.12268e-21
    Average total energy            = 1.03323e-20
Info function was successful.

ExecutionTime = 7.15 s  ClockTime = 10 s

fieldAverage fieldAverage1 write:
    Calculating averages

Time = 7.7e-05

    Collisions                      = 6950
    Acceptance rate                 = 0.59159

Evolve function was successful.
Cloud name: dsmc
    Number of dsmc particles        = 108835
    Number of molecules             = 1.08835e+22
    Mass in system                  = 0.000506083
    Average linear momentum         = (-2.10633e-26 -1.71238e-26 -2.18562e-27)
   |Average linear momentum|        = 2.72335e-26
    Average linear kinetic energy   = 6.20974e-21
    Average internal energy         = 4.12255e-21
    Average total energy            = 1.03323e-20
Info function was successful.

ExecutionTime = 7.23 s  ClockTime = 10 s

fieldAverage fieldAverage1 write:
    Calculating averages

Time = 7.8e-05

    Collisions                      = 6897
    Acceptance rate                 = 0.587729

Evolve function was successful.
Cloud name: dsmc
    Number of dsmc particles        = 108834
    Number of molecules             = 1.08834e+22
    Mass in system                  = 0.000506078
    Average linear momentum         = (-2.11167e-26 -1.70734e-26 -2.16302e-27)
   |Average linear momentum|        = 2.72414e-26
    Average linear kinetic energy   = 6.20965e-21
    Average internal energy         = 4.12272e-21
    Average total energy            = 1.03324e-20
Info function was successful.

ExecutionTime = 7.31 s  ClockTime = 10 s

fieldAverage fieldAverage1 write:
    Calculating averages

Time = 7.9e-05

    Collisions                      = 6914
    Acceptance rate                 = 0.588225

Evolve function was successful.
Cloud name: dsmc
    Number of dsmc particles        = 108830
    Number of molecules             = 1.0883e+22
    Mass in system                  = 0.00050606
    Average linear momentum         = (-2.19746e-26 -1.72293e-26 -2.47007e-27)
   |Average linear momentum|        = 2.80327e-26
    Average linear kinetic energy   = 6.20455e-21
    Average internal energy         = 4.12771e-21
    Average total energy            = 1.03323e-20
Info function was successful.

ExecutionTime = 7.39 s  ClockTime = 10 s

fieldAverage fieldAverage1 write:
    Calculating averages

Time = 8e-05

    Collisions                      = 6897
    Acceptance rate                 = 0.586779

Evolve function was successful.
Cloud name: dsmc
    Number of dsmc particles        = 108828
    Number of molecules             = 1.08828e+22
    Mass in system                  = 0.00050605
    Average linear momentum         = (-2.23105e-26 -1.71902e-26 -2.27189e-27)
   |Average linear momentum|        = 2.82564e-26
    Average linear kinetic energy   = 6.20616e-21
    Average internal energy         = 4.12617e-21
    Average total energy            = 1.03323e-20
Info function was successful.

ExecutionTime = 7.48 s  ClockTime = 10 s

fieldAverage fieldAverage1 write:
    Calculating averages

Time = 8.1e-05

    Collisions                      = 6966
    Acceptance rate                 = 0.593103

Evolve function was successful.
Cloud name: dsmc
    Number of dsmc particles        = 108822
    Number of molecules             = 1.08822e+22
    Mass in system                  = 0.000506022
    Average linear momentum         = (-2.30427e-26 -1.6773e-26 -2.47412e-27)
   |Average linear momentum|        = 2.86081e-26
    Average linear kinetic energy   = 6.20514e-21
    Average internal energy         = 4.12696e-21
    Average total energy            = 1.03321e-20
Info function was successful.

ExecutionTime = 7.56 s  ClockTime = 10 s

fieldAverage fieldAverage1 write:
    Calculating averages

Time = 8.2e-05

    Collisions                      = 6869
    Acceptance rate                 = 0.58385

Evolve function was successful.
Cloud name: dsmc
    Number of dsmc particles        = 108821
    Number of molecules             = 1.08821e+22
    Mass in system                  = 0.000506018
    Average linear momentum         = (-2.32743e-26 -1.6753e-26 -2.34246e-27)
   |Average linear momentum|        = 2.87722e-26
    Average linear kinetic energy   = 6.20457e-21
    Average internal energy         = 4.12751e-21
    Average total energy            = 1.03321e-20
Info function was successful.

ExecutionTime = 7.64 s  ClockTime = 10 s

fieldAverage fieldAverage1 write:
    Calculating averages

Time = 8.3e-05

    Collisions                      = 6966
    Acceptance rate                 = 0.591944

Evolve function was successful.
Cloud name: dsmc
    Number of dsmc particles        = 108818
    Number of molecules             = 1.08818e+22
    Mass in system                  = 0.000506004
    Average linear momentum         = (-2.38852e-26 -1.70299e-26 -2.08866e-27)
   |Average linear momentum|        = 2.9409e-26
    Average linear kinetic energy   = 6.20483e-21
    Average internal energy         = 4.12709e-21
    Average total energy            = 1.03319e-20
Info function was successful.

ExecutionTime = 7.72 s  ClockTime = 10 s

fieldAverage fieldAverage1 write:
    Calculating averages

Time = 8.4e-05

    Collisions                      = 6852
    Acceptance rate                 = 0.58201

Evolve function was successful.
Cloud name: dsmc
    Number of dsmc particles        = 108815
    Number of molecules             = 1.08815e+22
    Mass in system                  = 0.00050599
    Average linear momentum         = (-2.39557e-26 -1.69458e-26 -2.13835e-27)
   |Average linear momentum|        = 2.94212e-26
    Average linear kinetic energy   = 6.20666e-21
    Average internal energy         = 4.12517e-21
    Average total energy            = 1.03318e-20
Info function was successful.

ExecutionTime = 7.79 s  ClockTime = 10 s

fieldAverage fieldAverage1 write:
    Calculating averages

Time = 8.5e-05

    Collisions                      = 6933
    Acceptance rate                 = 0.58894

Evolve function was successful.
Cloud name: dsmc
    Number of dsmc particles        = 108813
    Number of molecules             = 1.08813e+22
    Mass in system                  = 0.00050598
    Average linear momentum         = (-2.36028e-26 -1.69873e-26 -2.45891e-27)
   |Average linear momentum|        = 2.9184e-26
    Average linear kinetic energy   = 6.20798e-21
    Average internal energy         = 4.12373e-21
    Average total energy            = 1.03317e-20
Info function was successful.

ExecutionTime = 7.89 s  ClockTime = 10 s

fieldAverage fieldAverage1 write:
    Calculating averages

Time = 8.6e-05

    Collisions                      = 6914
    Acceptance rate                 = 0.586728

Evolve function was successful.
Cloud name: dsmc
    Number of dsmc particles        = 108810
    Number of molecules             = 1.0881e+22
    Mass in system                  = 0.000505967
    Average linear momentum         = (-2.35808e-26 -1.72276e-26 -2.57234e-27)
   |Average linear momentum|        = 2.93166e-26
    Average linear kinetic energy   = 6.20883e-21
    Average internal energy         = 4.12287e-21
    Average total energy            = 1.03317e-20
Info function was successful.

ExecutionTime = 7.97 s  ClockTime = 10 s

fieldAverage fieldAverage1 write:
    Calculating averages

Time = 8.7e-05

    Collisions                      = 6888
    Acceptance rate                 = 0.584621

Evolve function was successful.
Cloud name: dsmc
    Number of dsmc particles        = 108806
    Number of molecules             = 1.08806e+22
    Mass in system                  = 0.000505948
    Average linear momentum         = (-2.3929e-26 -1.72582e-26 -2.42842e-27)
   |Average linear momentum|        = 2.96031e-26
    Average linear kinetic energy   = 6.21008e-21
    Average internal energy         = 4.12164e-21
    Average total energy            = 1.03317e-20
Info function was successful.

ExecutionTime = 8.04 s  ClockTime = 10 s

fieldAverage fieldAverage1 write:
    Calculating averages

Time = 8.8e-05

    Collisions                      = 6823
    Acceptance rate                 = 0.578318

Evolve function was successful.
Cloud name: dsmc
    Number of dsmc particles        = 108805
    Number of molecules             = 1.08805e+22
    Mass in system                  = 0.000505943
    Average linear momentum         = (-2.40189e-26 -1.72584e-26 -2.51847e-27)
   |Average linear momentum|        = 2.96833e-26
    Average linear kinetic energy   = 6.20701e-21
    Average internal energy         = 4.12474e-21
    Average total energy            = 1.03318e-20
Info function was successful.

ExecutionTime = 8.12 s  ClockTime = 11 s

fieldAverage fieldAverage1 write:
    Calculating averages

Time = 8.9e-05

    Collisions                      = 6927
    Acceptance rate                 = 0.587781

Evolve function was successful.
Cloud name: dsmc
    Number of dsmc particles        = 108802
    Number of molecules             = 1.08802e+22
    Mass in system                  = 0.000505929
    Average linear momentum         = (-2.40805e-26 -1.70878e-26 -2.51171e-27)
   |Average linear momentum|        = 2.9634e-26
    Average linear kinetic energy   = 6.20557e-21
    Average internal energy         = 4.12625e-21
    Average total energy            = 1.03318e-20
Info function was successful.

ExecutionTime = 8.22 s  ClockTime = 11 s

fieldAverage fieldAverage1 write:
    Calculating averages

Time = 9e-05

    Collisions                      = 7053
    Acceptance rate                 = 0.597155

Evolve function was successful.
Cloud name: dsmc
    Number of dsmc particles        = 108799
    Number of molecules             = 1.08799e+22
    Mass in system                  = 0.000505915
    Average linear momentum         = (-2.42057e-26 -1.69293e-26 -2.57727e-27)
   |Average linear momentum|        = 2.96506e-26
    Average linear kinetic energy   = 6.20553e-21
    Average internal energy         = 4.12625e-21
    Average total energy            = 1.03318e-20
Info function was successful.

ExecutionTime = 8.28 s  ClockTime = 11 s

fieldAverage fieldAverage1 write:
    Calculating averages

Time = 9.1e-05

    Collisions                      = 6924
    Acceptance rate                 = 0.588025

Evolve function was successful.
Cloud name: dsmc
    Number of dsmc particles        = 108799
    Number of molecules             = 1.08799e+22
    Mass in system                  = 0.000505915
    Average linear momentum         = (-2.42057e-26 -1.69293e-26 -2.57727e-27)
   |Average linear momentum|        = 2.96506e-26
    Average linear kinetic energy   = 6.20557e-21
    Average internal energy         = 4.12622e-21
    Average total energy            = 1.03318e-20
Info function was successful.

ExecutionTime = 8.4 s  ClockTime = 11 s

fieldAverage fieldAverage1 write:
    Calculating averages

Time = 9.2e-05

    Collisions                      = 6920
    Acceptance rate                 = 0.5853

Evolve function was successful.
Cloud name: dsmc
    Number of dsmc particles        = 108797
    Number of molecules             = 1.08797e+22
    Mass in system                  = 0.000505906
    Average linear momentum         = (-2.43226e-26 -1.68782e-26 -2.56957e-27)
   |Average linear momentum|        = 2.97164e-26
    Average linear kinetic energy   = 6.20322e-21
    Average internal energy         = 4.12859e-21
    Average total energy            = 1.03318e-20
Info function was successful.

ExecutionTime = 8.5 s  ClockTime = 11 s

fieldAverage fieldAverage1 write:
    Calculating averages

Time = 9.3e-05

    Collisions                      = 7021
    Acceptance rate                 = 0.593591

Evolve function was successful.
Cloud name: dsmc
    Number of dsmc particles        = 108792
    Number of molecules             = 1.08792e+22
    Mass in system                  = 0.000505883
    Average linear momentum         = (-2.48696e-26 -1.7068e-26 -2.75868e-27)
   |Average linear momentum|        = 3.0289e-26
    Average linear kinetic energy   = 6.20462e-21
    Average internal energy         = 4.12728e-21
    Average total energy            = 1.03319e-20
Info function was successful.

ExecutionTime = 8.59 s  ClockTime = 11 s

fieldAverage fieldAverage1 write:
    Calculating averages

Time = 9.4e-05

    Collisions                      = 6890
    Acceptance rate                 = 0.584146

Evolve function was successful.
Cloud name: dsmc
    Number of dsmc particles        = 108791
    Number of molecules             = 1.08791e+22
    Mass in system                  = 0.000505878
    Average linear momentum         = (-2.49765e-26 -1.70014e-26 -2.88966e-27)
   |Average linear momentum|        = 3.03517e-26
    Average linear kinetic energy   = 6.20515e-21
    Average internal energy         = 4.1268e-21
    Average total energy            = 1.03319e-20
Info function was successful.

ExecutionTime = 8.68 s  ClockTime = 11 s

fieldAverage fieldAverage1 write:
    Calculating averages

Time = 9.5e-05

    Collisions                      = 6940
    Acceptance rate                 = 0.58724

Evolve function was successful.
Cloud name: dsmc
    Number of dsmc particles        = 108789
    Number of molecules             = 1.08789e+22
    Mass in system                  = 0.000505869
    Average linear momentum         = (-2.53618e-26 -1.71862e-26 -2.73567e-27)
   |Average linear momentum|        = 3.07582e-26
    Average linear kinetic energy   = 6.2066e-21
    Average internal energy         = 4.12534e-21
    Average total energy            = 1.03319e-20
Info function was successful.

ExecutionTime = 8.76 s  ClockTime = 11 s

fieldAverage fieldAverage1 write:
    Calculating averages

Time = 9.6e-05

    Collisions                      = 6902
    Acceptance rate                 = 0.584173

Evolve function was successful.
Cloud name: dsmc
    Number of dsmc particles        = 108787
    Number of molecules             = 1.08787e+22
    Mass in system                  = 0.00050586
    Average linear momentum         = (-2.58365e-26 -1.706e-26 -2.93497e-27)
   |Average linear momentum|        = 3.10995e-26
    Average linear kinetic energy   = 6.20885e-21
    Average internal energy         = 4.12294e-21
    Average total energy            = 1.03318e-20
Info function was successful.

ExecutionTime = 8.86 s  ClockTime = 11 s

fieldAverage fieldAverage1 write:
    Calculating averages

Time = 9.7e-05

    Collisions                      = 6897
    Acceptance rate                 = 0.582615

Evolve function was successful.
Cloud name: dsmc
    Number of dsmc particles        = 108784
    Number of molecules             = 1.08784e+22
    Mass in system                  = 0.000505846
    Average linear momentum         = (-2.59195e-26 -1.69169e-26 -2.97263e-27)
   |Average linear momentum|        = 3.1094e-26
    Average linear kinetic energy   = 6.20641e-21
    Average internal energy         = 4.12537e-21
    Average total energy            = 1.03318e-20
Info function was successful.

ExecutionTime = 8.96 s  ClockTime = 11 s

fieldAverage fieldAverage1 write:
    Calculating averages

Time = 9.8e-05

    Collisions                      = 6944
    Acceptance rate                 = 0.588026

Evolve function was successful.
Cloud name: dsmc
    Number of dsmc particles        = 108782
    Number of molecules             = 1.08782e+22
    Mass in system                  = 0.000505836
    Average linear momentum         = (-2.59842e-26 -1.68038e-26 -2.91401e-27)
   |Average linear momentum|        = 3.10812e-26
    Average linear kinetic energy   = 6.20353e-21
    Average internal energy         = 4.12826e-21
    Average total energy            = 1.03318e-20
Info function was successful.

ExecutionTime = 9.05 s  ClockTime = 11 s

fieldAverage fieldAverage1 write:
    Calculating averages

Time = 9.9e-05

    Collisions                      = 6964
    Acceptance rate                 = 0.589221

Evolve function was successful.
Cloud name: dsmc
    Number of dsmc particles        = 108781
    Number of molecules             = 1.08781e+22
    Mass in system                  = 0.000505832
    Average linear momentum         = (-2.61791e-26 -1.67869e-26 -2.88728e-27)
   |Average linear momentum|        = 3.12327e-26
    Average linear kinetic energy   = 6.20162e-21
    Average internal energy         = 4.13022e-21
    Average total energy            = 1.03318e-20
Info function was successful.

ExecutionTime = 9.15 s  ClockTime = 12 s

fieldAverage fieldAverage1 write:
    Calculating averages

Time = 0.0001

    Collisions                      = 6982
    Acceptance rate                 = 0.588801

Evolve function was successful.
Cloud name: dsmc
    Number of dsmc particles        = 108777
    Number of molecules             = 1.08777e+22
    Mass in system                  = 0.000505813
    Average linear momentum         = (-2.64525e-26 -1.71232e-26 -2.79364e-27)
   |Average linear momentum|        = 3.16345e-26
    Average linear kinetic energy   = 6.20163e-21
    Average internal energy         = 4.13038e-21
    Average total energy            = 1.0332e-20
Info function was successful.

ExecutionTime = 9.24 s  ClockTime = 12 s

fieldAverage fieldAverage1 write:
    Calculating averages

Time = 0.000101

    Collisions                      = 6989
    Acceptance rate                 = 0.590387

Evolve function was successful.
Cloud name: dsmc
    Number of dsmc particles        = 108775
    Number of molecules             = 1.08775e+22
    Mass in system                  = 0.000505804
    Average linear momentum         = (-2.7014e-26 -1.69613e-26 -2.74125e-27)
   |Average linear momentum|        = 3.20149e-26
    Average linear kinetic energy   = 6.203e-21
    Average internal energy         = 4.1288e-21
    Average total energy            = 1.03318e-20
Info function was successful.

ExecutionTime = 9.32 s  ClockTime = 12 s

fieldAverage fieldAverage1 write:
    Calculating averages

Time = 0.000102

    Collisions                      = 6827
    Acceptance rate                 = 0.57758

Evolve function was successful.
Cloud name: dsmc
    Number of dsmc particles        = 108772
    Number of molecules             = 1.08772e+22
    Mass in system                  = 0.00050579
    Average linear momentum         = (-2.66725e-26 -1.68746e-26 -2.96258e-27)
   |Average linear momentum|        = 3.1701e-26
    Average linear kinetic energy   = 6.20412e-21
    Average internal energy         = 4.12753e-21
    Average total energy            = 1.03317e-20
Info function was successful.

ExecutionTime = 9.4 s  ClockTime = 12 s

fieldAverage fieldAverage1 write:
    Calculating averages

Time = 0.000103

    Collisions                      = 6841
    Acceptance rate                 = 0.577495

Evolve function was successful.
Cloud name: dsmc
    Number of dsmc particles        = 108770
    Number of molecules             = 1.0877e+22
    Mass in system                  = 0.000505781
    Average linear momentum         = (-2.67566e-26 -1.66851e-26 -2.86854e-27)
   |Average linear momentum|        = 3.16628e-26
    Average linear kinetic energy   = 6.20543e-21
    Average internal energy         = 4.12626e-21
    Average total energy            = 1.03317e-20
Info function was successful.

ExecutionTime = 9.48 s  ClockTime = 12 s

fieldAverage fieldAverage1 write:
    Calculating averages

Time = 0.000104

    Collisions                      = 6902
    Acceptance rate                 = 0.583333

Evolve function was successful.
Cloud name: dsmc
    Number of dsmc particles        = 108767
    Number of molecules             = 1.08767e+22
    Mass in system                  = 0.000505767
    Average linear momentum         = (-2.68143e-26 -1.67267e-26 -2.85986e-27)
   |Average linear momentum|        = 3.17328e-26
    Average linear kinetic energy   = 6.20402e-21
    Average internal energy         = 4.12772e-21
    Average total energy            = 1.03317e-20
Info function was successful.

ExecutionTime = 9.55 s  ClockTime = 12 s

fieldAverage fieldAverage1 write:
    Calculating averages

Time = 0.000105

    Collisions                      = 6905
    Acceptance rate                 = 0.581327

Evolve function was successful.
Cloud name: dsmc
    Number of dsmc particles        = 108766
    Number of molecules             = 1.08766e+22
    Mass in system                  = 0.000505762
    Average linear momentum         = (-2.67069e-26 -1.66417e-26 -2.9037e-27)
   |Average linear momentum|        = 3.16012e-26
    Average linear kinetic energy   = 6.20178e-21
    Average internal energy         = 4.13004e-21
    Average total energy            = 1.03318e-20
Info function was successful.

ExecutionTime = 9.63 s  ClockTime = 12 s

fieldAverage fieldAverage1 write:
    Calculating averages

Time = 0.000106

    Collisions                      = 6883
    Acceptance rate                 = 0.582565

Evolve function was successful.
Cloud name: dsmc
    Number of dsmc particles        = 108764
    Number of molecules             = 1.08764e+22
    Mass in system                  = 0.000505753
    Average linear momentum         = (-2.70374e-26 -1.65305e-26 -2.81092e-27)
   |Average linear momentum|        = 3.18148e-26
    Average linear kinetic energy   = 6.20064e-21
    Average internal energy         = 4.13116e-21
    Average total energy            = 1.03318e-20
Info function was successful.

ExecutionTime = 9.71 s  ClockTime = 12 s

fieldAverage fieldAverage1 write:
    Calculating averages

Time = 0.000107

    Collisions                      = 7039
    Acceptance rate                 = 0.593008

Evolve function was successful.
Cloud name: dsmc
    Number of dsmc particles        = 108763
    Number of molecules             = 1.08763e+22
    Mass in system                  = 0.000505748
    Average linear momentum         = (-2.69102e-26 -1.66149e-26 -2.84549e-27)
   |Average linear momentum|        = 3.17539e-26
    Average linear kinetic energy   = 6.1992e-21
    Average internal energy         = 4.13262e-21
    Average total energy            = 1.03318e-20
Info function was successful.

ExecutionTime = 9.74 s  ClockTime = 12 s

fieldAverage fieldAverage1 write:
    Calculating averages

Time = 0.000108

    Collisions                      = 6893
    Acceptance rate                 = 0.581933

Evolve function was successful.
Cloud name: dsmc
    Number of dsmc particles        = 108760
    Number of molecules             = 1.0876e+22
    Mass in system                  = 0.000505734
    Average linear momentum         = (-2.72723e-26 -1.66208e-26 -2.80462e-27)
   |Average linear momentum|        = 3.20608e-26
    Average linear kinetic energy   = 6.19676e-21
    Average internal energy         = 4.13489e-21
    Average total energy            = 1.03317e-20
Info function was successful.

ExecutionTime = 9.82 s  ClockTime = 12 s

fieldAverage fieldAverage1 write:
    Calculating averages

Time = 0.000109

    Collisions                      = 6835
    Acceptance rate                 = 0.575627

Evolve function was successful.
Cloud name: dsmc
    Number of dsmc particles        = 108757
    Number of molecules             = 1.08757e+22
    Mass in system                  = 0.00050572
    Average linear momentum         = (-2.78392e-26 -1.64425e-26 -2.88362e-27)
   |Average linear momentum|        = 3.24606e-26
    Average linear kinetic energy   = 6.19846e-21
    Average internal energy         = 4.13328e-21
    Average total energy            = 1.03317e-20
Info function was successful.

ExecutionTime = 9.9 s  ClockTime = 12 s

fieldAverage fieldAverage1 write:
    Calculating averages

Time = 0.00011

    Collisions                      = 6905
    Acceptance rate                 = 0.583291

Evolve function was successful.
Cloud name: dsmc
    Number of dsmc particles        = 108755
    Number of molecules             = 1.08755e+22
    Mass in system                  = 0.000505711
    Average linear momentum         = (-2.81226e-26 -1.68165e-26 -2.82205e-27)
   |Average linear momentum|        = 3.28883e-26
    Average linear kinetic energy   = 6.20114e-21
    Average internal energy         = 4.13059e-21
    Average total energy            = 1.03317e-20
Info function was successful.

ExecutionTime = 9.96 s  ClockTime = 12 s

fieldAverage fieldAverage1 write:
    Calculating averages

Time = 0.000111

    Collisions                      = 6928
[...]
    Number of dsmc particles        = 99584
    Number of molecules             = 9.9584e+21
    Mass in system                  = 0.000463066
    Average linear momentum         = (-1.15619e-24 -3.85661e-26 -4.16297e-27)
   |Average linear momentum|        = 1.15684e-24
    Average linear kinetic energy   = 6.20261e-21
    Average internal energy         = 3.97574e-21
    Average total energy            = 1.01784e-20
Info function was successful.

ExecutionTime = 289.54 s  ClockTime = 301 s

fieldAverage fieldAverage1 write:
    Calculating averages

Time = 0.003576

    Collisions                      = 5567
    Acceptance rate                 = 0.528981

Evolve function was successful.
Cloud name: dsmc
    Number of dsmc particles        = 99581
    Number of molecules             = 9.9581e+21
    Mass in system                  = 0.000463052
    Average linear momentum         = (-1.15625e-24 -3.87174e-26 -4.11406e-27)
   |Average linear momentum|        = 1.1569e-24
    Average linear kinetic energy   = 6.2038e-21
    Average internal energy         = 3.97471e-21
    Average total energy            = 1.01785e-20
Info function was successful.

ExecutionTime = 289.62 s  ClockTime = 301 s

fieldAverage fieldAverage1 write:
    Calculating averages

Time = 0.003577

    Collisions                      = 5592
    Acceptance rate                 = 0.531458

Evolve function was successful.
Cloud name: dsmc
    Number of dsmc particles        = 99577
    Number of molecules             = 9.9577e+21
    Mass in system                  = 0.000463033
    Average linear momentum         = (-1.15727e-24 -3.86362e-26 -3.92892e-27)
   |Average linear momentum|        = 1.15792e-24
    Average linear kinetic energy   = 6.20203e-21
    Average internal energy         = 3.97641e-21
    Average total energy            = 1.01784e-20
Info function was successful.

ExecutionTime = 289.68 s  ClockTime = 301 s

fieldAverage fieldAverage1 write:
    Calculating averages

Time = 0.003578

    Collisions                      = 5595
    Acceptance rate                 = 0.530281

Evolve function was successful.
Cloud name: dsmc
    Number of dsmc particles        = 99574
    Number of molecules             = 9.9574e+21
    Mass in system                  = 0.000463019
    Average linear momentum         = (-1.15808e-24 -3.83712e-26 -3.85419e-27)
   |Average linear momentum|        = 1.15872e-24
    Average linear kinetic energy   = 6.20282e-21
    Average internal energy         = 3.97561e-21
    Average total energy            = 1.01784e-20
Info function was successful.

ExecutionTime = 289.76 s  ClockTime = 301 s

fieldAverage fieldAverage1 write:
    Calculating averages

Time = 0.003579

    Collisions                      = 5615
    Acceptance rate                 = 0.534457

Evolve function was successful.
Cloud name: dsmc
    Number of dsmc particles        = 99573
    Number of molecules             = 9.9573e+21
    Mass in system                  = 0.000463014
    Average linear momentum         = (-1.15831e-24 -3.84561e-26 -3.86764e-27)
   |Average linear momentum|        = 1.15895e-24
    Average linear kinetic energy   = 6.20213e-21
    Average internal energy         = 3.97634e-21
    Average total energy            = 1.01785e-20
Info function was successful.

ExecutionTime = 289.84 s  ClockTime = 301 s

fieldAverage fieldAverage1 write:
    Calculating averages

Time = 0.00358

    Collisions                      = 5552
    Acceptance rate                 = 0.527807

Evolve function was successful.
Cloud name: dsmc
    Number of dsmc particles        = 99570
    Number of molecules             = 9.957e+21
    Mass in system                  = 0.000463001
    Average linear momentum         = (-1.15924e-24 -3.84652e-26 -4.11902e-27)
   |Average linear momentum|        = 1.15989e-24
    Average linear kinetic energy   = 6.20074e-21
    Average internal energy         = 3.97753e-21
    Average total energy            = 1.01783e-20
Info function was successful.

ExecutionTime = 289.92 s  ClockTime = 301 s

fieldAverage fieldAverage1 write:
    Calculating averages

Time = 0.003581

    Collisions                      = 5569
    Acceptance rate                 = 0.52887

Evolve function was successful.
Cloud name: dsmc
    Number of dsmc particles        = 99569
    Number of molecules             = 9.9569e+21
    Mass in system                  = 0.000462996
    Average linear momentum         = (-1.15944e-24 -3.82311e-26 -3.93476e-27)
   |Average linear momentum|        = 1.16008e-24
    Average linear kinetic energy   = 6.19945e-21
    Average internal energy         = 3.97872e-21
    Average total energy            = 1.01782e-20
Info function was successful.

ExecutionTime = 290 s  ClockTime = 301 s

fieldAverage fieldAverage1 write:
    Calculating averages

Time = 0.003582

    Collisions                      = 5666
    Acceptance rate                 = 0.53696

Evolve function was successful.
Cloud name: dsmc
    Number of dsmc particles        = 99568
    Number of molecules             = 9.9568e+21
    Mass in system                  = 0.000462991
    Average linear momentum         = (-1.15955e-24 -3.8142e-26 -3.99349e-27)
   |Average linear momentum|        = 1.16018e-24
    Average linear kinetic energy   = 6.19716e-21
    Average internal energy         = 3.98107e-21
    Average total energy            = 1.01782e-20
Info function was successful.

ExecutionTime = 290.07 s  ClockTime = 301 s

fieldAverage fieldAverage1 write:
    Calculating averages

Time = 0.003583

    Collisions                      = 5482
    Acceptance rate                 = 0.5214

Evolve function was successful.
Cloud name: dsmc
    Number of dsmc particles        = 99564
    Number of molecules             = 9.9564e+21
    Mass in system                  = 0.000462973
    Average linear momentum         = (-1.15968e-24 -3.8314e-26 -3.97384e-27)
   |Average linear momentum|        = 1.16032e-24
    Average linear kinetic energy   = 6.19906e-21
    Average internal energy         = 3.97923e-21
    Average total energy            = 1.01783e-20
Info function was successful.

ExecutionTime = 290.12 s  ClockTime = 301 s

fieldAverage fieldAverage1 write:
    Calculating averages

Time = 0.003584

    Collisions                      = 5606
    Acceptance rate                 = 0.533194

Evolve function was successful.
Cloud name: dsmc
    Number of dsmc particles        = 99562
    Number of molecules             = 9.9562e+21
    Mass in system                  = 0.000462963
    Average linear momentum         = (-1.16033e-24 -3.83809e-26 -4.13048e-27)
   |Average linear momentum|        = 1.16098e-24
    Average linear kinetic energy   = 6.20083e-21
    Average internal energy         = 3.97737e-21
    Average total energy            = 1.01782e-20
Info function was successful.

ExecutionTime = 290.18 s  ClockTime = 301 s

fieldAverage fieldAverage1 write:
    Calculating averages

Time = 0.003585

    Collisions                      = 5508
    Acceptance rate                 = 0.522581

Evolve function was successful.
Cloud name: dsmc
    Number of dsmc particles        = 99559
    Number of molecules             = 9.9559e+21
    Mass in system                  = 0.000462949
    Average linear momentum         = (-1.1607e-24 -3.83366e-26 -4.00755e-27)
   |Average linear momentum|        = 1.16134e-24
    Average linear kinetic energy   = 6.20263e-21
    Average internal energy         = 3.97559e-21
    Average total energy            = 1.01782e-20
Info function was successful.

ExecutionTime = 290.26 s  ClockTime = 302 s

fieldAverage fieldAverage1 write:
    Calculating averages

Time = 0.003586

    Collisions                      = 5528
    Acceptance rate                 = 0.525725

Evolve function was successful.
Cloud name: dsmc
    Number of dsmc particles        = 99556
    Number of molecules             = 9.9556e+21
    Mass in system                  = 0.000462935
    Average linear momentum         = (-1.16112e-24 -3.85703e-26 -4.08199e-27)
   |Average linear momentum|        = 1.16177e-24
    Average linear kinetic energy   = 6.20036e-21
    Average internal energy         = 3.97789e-21
    Average total energy            = 1.01782e-20
Info function was successful.

ExecutionTime = 290.34 s  ClockTime = 302 s

fieldAverage fieldAverage1 write:
    Calculating averages

Time = 0.003587

    Collisions                      = 5577
    Acceptance rate                 = 0.52963

Evolve function was successful.
Cloud name: dsmc
    Number of dsmc particles        = 99553
    Number of molecules             = 9.9553e+21
    Mass in system                  = 0.000462921
    Average linear momentum         = (-1.16171e-24 -3.83854e-26 -3.9766e-27)
   |Average linear momentum|        = 1.16235e-24
    Average linear kinetic energy   = 6.20143e-21
    Average internal energy         = 3.97678e-21
    Average total energy            = 1.01782e-20
Info function was successful.

ExecutionTime = 290.4 s  ClockTime = 302 s

fieldAverage fieldAverage1 write:
    Calculating averages

Time = 0.003588

    Collisions                      = 5628
    Acceptance rate                 = 0.534169

Evolve function was successful.
Cloud name: dsmc
    Number of dsmc particles        = 99549
    Number of molecules             = 9.9549e+21
    Mass in system                  = 0.000462903
    Average linear momentum         = (-1.16184e-24 -3.85721e-26 -3.70838e-27)
   |Average linear momentum|        = 1.16249e-24
    Average linear kinetic energy   = 6.2016e-21
    Average internal energy         = 3.97663e-21
    Average total energy            = 1.01782e-20
Info function was successful.

ExecutionTime = 290.47 s  ClockTime = 302 s

fieldAverage fieldAverage1 write:
    Calculating averages

Time = 0.003589

    Collisions                      = 5562
    Acceptance rate                 = 0.528205

Evolve function was successful.
Cloud name: dsmc
    Number of dsmc particles        = 99547
    Number of molecules             = 9.9547e+21
    Mass in system                  = 0.000462894
    Average linear momentum         = (-1.1622e-24 -3.86953e-26 -3.68442e-27)
   |Average linear momentum|        = 1.16285e-24
    Average linear kinetic energy   = 6.20257e-21
    Average internal energy         = 3.97577e-21
    Average total energy            = 1.01783e-20
Info function was successful.

ExecutionTime = 290.54 s  ClockTime = 302 s

fieldAverage fieldAverage1 write:
    Calculating averages

Time = 0.00359

    Collisions                      = 5517
    Acceptance rate                 = 0.524929

Evolve function was successful.
Cloud name: dsmc
    Number of dsmc particles        = 99546
    Number of molecules             = 9.9546e+21
    Mass in system                  = 0.000462889
    Average linear momentum         = (-1.16249e-24 -3.88016e-26 -3.53074e-27)
   |Average linear momentum|        = 1.16314e-24
    Average linear kinetic energy   = 6.20567e-21
    Average internal energy         = 3.97263e-21
    Average total energy            = 1.01783e-20
Info function was successful.

ExecutionTime = 290.61 s  ClockTime = 302 s

fieldAverage fieldAverage1 write:
    Calculating averages

Time = 0.003591

    Collisions                      = 5600
    Acceptance rate                 = 0.531511

Evolve function was successful.
Cloud name: dsmc
    Number of dsmc particles        = 99543
    Number of molecules             = 9.9543e+21
    Mass in system                  = 0.000462875
    Average linear momentum         = (-1.16282e-24 -3.84256e-26 -3.00959e-27)
   |Average linear momentum|        = 1.16346e-24
    Average linear kinetic energy   = 6.20481e-21
    Average internal energy         = 3.9734e-21
    Average total energy            = 1.01782e-20
Info function was successful.

ExecutionTime = 290.67 s  ClockTime = 302 s

fieldAverage fieldAverage1 write:
    Calculating averages

Time = 0.003592

    Collisions                      = 5590
    Acceptance rate                 = 0.531824

Evolve function was successful.
Cloud name: dsmc
    Number of dsmc particles        = 99539
    Number of molecules             = 9.9539e+21
    Mass in system                  = 0.000462856
    Average linear momentum         = (-1.16241e-24 -3.86125e-26 -2.52816e-27)
   |Average linear momentum|        = 1.16305e-24
    Average linear kinetic energy   = 6.20481e-21
    Average internal energy         = 3.97326e-21
    Average total energy            = 1.01781e-20
Info function was successful.

ExecutionTime = 290.73 s  ClockTime = 302 s

fieldAverage fieldAverage1 write:
    Calculating averages

Time = 0.003593

    Collisions                      = 5548
    Acceptance rate                 = 0.526576

Evolve function was successful.
Cloud name: dsmc
    Number of dsmc particles        = 99537
    Number of molecules             = 9.9537e+21
    Mass in system                  = 0.000462847
    Average linear momentum         = (-1.16242e-24 -3.86082e-26 -2.62198e-27)
   |Average linear momentum|        = 1.16307e-24
    Average linear kinetic energy   = 6.20397e-21
    Average internal energy         = 3.97415e-21
    Average total energy            = 1.01781e-20
Info function was successful.

ExecutionTime = 290.79 s  ClockTime = 302 s

fieldAverage fieldAverage1 write:
    Calculating averages

Time = 0.003594

    Collisions                      = 5587
    Acceptance rate                 = 0.530579

Evolve function was successful.
Cloud name: dsmc
    Number of dsmc particles        = 99537
    Number of molecules             = 9.9537e+21
    Mass in system                  = 0.000462847
    Average linear momentum         = (-1.16242e-24 -3.86082e-26 -2.62198e-27)
   |Average linear momentum|        = 1.16307e-24
    Average linear kinetic energy   = 6.20673e-21
    Average internal energy         = 3.9714e-21
    Average total energy            = 1.01781e-20
Info function was successful.

ExecutionTime = 290.86 s  ClockTime = 302 s

fieldAverage fieldAverage1 write:
    Calculating averages

Time = 0.003595

    Collisions                      = 5465
    Acceptance rate                 = 0.518895

Evolve function was successful.
Cloud name: dsmc
    Number of dsmc particles        = 99537
    Number of molecules             = 9.9537e+21
    Mass in system                  = 0.000462847
    Average linear momentum         = (-1.16242e-24 -3.86082e-26 -2.62198e-27)
   |Average linear momentum|        = 1.16307e-24
    Average linear kinetic energy   = 6.20404e-21
    Average internal energy         = 3.97409e-21
    Average total energy            = 1.01781e-20
Info function was successful.

ExecutionTime = 290.93 s  ClockTime = 302 s

fieldAverage fieldAverage1 write:
    Calculating averages

Time = 0.003596

    Collisions                      = 5609
    Acceptance rate                 = 0.533428

Evolve function was successful.
Cloud name: dsmc
    Number of dsmc particles        = 99535
    Number of molecules             = 9.9535e+21
    Mass in system                  = 0.000462838
    Average linear momentum         = (-1.16301e-24 -3.86467e-26 -2.67794e-27)
   |Average linear momentum|        = 1.16366e-24
    Average linear kinetic energy   = 6.20169e-21
    Average internal energy         = 3.97636e-21
    Average total energy            = 1.01781e-20
Info function was successful.

ExecutionTime = 291.01 s  ClockTime = 302 s

fieldAverage fieldAverage1 write:
    Calculating averages

Time = 0.003597

    Collisions                      = 5601
    Acceptance rate                 = 0.531909

Evolve function was successful.
Cloud name: dsmc
    Number of dsmc particles        = 99533
    Number of molecules             = 9.9533e+21
    Mass in system                  = 0.000462828
    Average linear momentum         = (-1.16359e-24 -3.89226e-26 -2.67382e-27)
   |Average linear momentum|        = 1.16424e-24
    Average linear kinetic energy   = 6.20046e-21
    Average internal energy         = 3.97755e-21
    Average total energy            = 1.0178e-20
Info function was successful.

ExecutionTime = 291.07 s  ClockTime = 302 s

fieldAverage fieldAverage1 write:
    Calculating averages

Time = 0.003598

    Collisions                      = 5474
    Acceptance rate                 = 0.520639

Evolve function was successful.
Cloud name: dsmc
    Number of dsmc particles        = 99530
    Number of molecules             = 9.953e+21
    Mass in system                  = 0.000462815
    Average linear momentum         = (-1.16435e-24 -3.90238e-26 -2.66089e-27)
   |Average linear momentum|        = 1.165e-24
    Average linear kinetic energy   = 6.20132e-21
    Average internal energy         = 3.97663e-21
    Average total energy            = 1.0178e-20
Info function was successful.

ExecutionTime = 291.15 s  ClockTime = 303 s

fieldAverage fieldAverage1 write:
    Calculating averages

Time = 0.003599

    Collisions                      = 5494
    Acceptance rate                 = 0.521896

Evolve function was successful.
Cloud name: dsmc
    Number of dsmc particles        = 99525
    Number of molecules             = 9.9525e+21
    Mass in system                  = 0.000462791
    Average linear momentum         = (-1.16492e-24 -3.9236e-26 -2.86291e-27)
   |Average linear momentum|        = 1.16559e-24
    Average linear kinetic energy   = 6.20151e-21
    Average internal energy         = 3.97618e-21
    Average total energy            = 1.01777e-20
Info function was successful.

ExecutionTime = 291.23 s  ClockTime = 303 s

fieldAverage fieldAverage1 write:
    Calculating averages

Time = 0.0036

    Collisions                      = 5572
    Acceptance rate                 = 0.529255

Evolve function was successful.
Cloud name: dsmc
    Number of dsmc particles        = 99522
    Number of molecules             = 9.9522e+21
    Mass in system                  = 0.000462777
    Average linear momentum         = (-1.16521e-24 -3.92817e-26 -2.81674e-27)
   |Average linear momentum|        = 1.16587e-24
    Average linear kinetic energy   = 6.19901e-21
    Average internal energy         = 3.9787e-21
    Average total energy            = 1.01777e-20
Info function was successful.

ExecutionTime = 292.18 s  ClockTime = 304 s

fieldAverage fieldAverage1 write:
    Calculating averages

    Writing average fields


Calculating dsmcFields.
    Calculating UMean field.
    Calculating translationalT field.
    Calculating internalT field.
    Calculating overallT field.
    Calculating pressure field.
    mag(UMean) max/min : 335.71 0.699332
    translationalT max/min : 350.435 188.686
    internalT max/min : 347.04 212.746
    overallT max/min : 348.323 200.894
    p max/min : 1.81553 0.118594
dsmcFields written.

--> FOAM Warning :     functionObjects::mag mag(U) cannot find required object U of type volScalarField
--> FOAM Warning :     functionObjects::mag mag(U) cannot find required object U of type surfaceScalarField
--> FOAM Warning :     functionObjects::mag mag(U) cannot find required object U of type volVectorField
--> FOAM Warning :     functionObjects::mag mag(U) cannot find required object U of type surfaceVectorField
--> FOAM Warning :     functionObjects::mag mag(U) cannot find required object U of type volSphericalTensorField
--> FOAM Warning :     functionObjects::mag mag(U) cannot find required object U of type surfaceSphericalTensorField
--> FOAM Warning :     functionObjects::mag mag(U) cannot find required object U of type volSymmTensorField
--> FOAM Warning :     functionObjects::mag mag(U) cannot find required object U of type surfaceSymmTensorField
--> FOAM Warning :     functionObjects::mag mag(U) cannot find required object U of type volTensorField
--> FOAM Warning :     functionObjects::mag mag(U) cannot find required object U of type surfaceTensorField
--> FOAM Warning :     functionObjects::mag mag(U) failed to execute.
End

