/*---------------------------------------------------------------------------*\
  =========                 |
  \\      /  F ield         | OpenFOAM: The Open Source CFD Toolbox
   \\    /   O peration     | Website:  https://openfoam.org
    \\  /    A nd           | Version:  7
     \\/     M anipulation  |
\*---------------------------------------------------------------------------*/
Build  : 7-1ff648926f77
Exec   : Hybrid
Date   : Jun 19 2020
Time   : 01:55:29
Host   : "DESKTOP-KF81SG4"
PID    : 12039
I/O    : uncollated
Case   : /home/anthonygay1812/OpenFOAM/Working/finalShockTube
nProcs : 1
sigFpe : Enabling floating point exception trapping (FOAM_SIGFPE).
fileModificationChecking : Monitoring run-time modified files using timeStampMaster (fileModificationSkew 10)
allowSystemOperations : Allowing user-supplied system call operations

// * * * * * * * * * * * * * * * * * * * * * * * * * * * * * * * * * * * * * //
Create time

Create mesh for time = 0

Create mesh for time = 0

Meshes created
Reading thermophysical properties

Selecting thermodynamics package 
{
    type            hePsiThermo;
    mixture         pureMixture;
    transport       const;
    thermo          hConst;
    equationOfState perfectGas;
    specie          specie;
    energy          sensibleInternalEnergy;
}

Using dynamicCode for patch fluidBound on field p at line 19 in "/home/anthonygay1812/OpenFOAM/Working/finalShockTube/system/fluid/codeDict.HPCFluidP"
Creating new library in "dynamicCode/HPCFluidP/platforms/linux64GccDPInt32Opt/lib/libHPCFluidP_63d5e54c36062ac8244c795ca35af836c0ec24e6.so"
Invoking "wmake -s libso /home/anthonygay1812/OpenFOAM/Working/finalShockTube/dynamicCode/HPCFluidP"
wmake libso /home/anthonygay1812/OpenFOAM/Working/finalShockTube/dynamicCode/HPCFluidP
    ln: ./lnInclude
    wmkdep: fixedValueFvPatchFieldTemplate.C
    Ctoo: fixedValueFvPatchFieldTemplate.C
    ld: /home/anthonygay1812/OpenFOAM/Working/finalShockTube/dynamicCode/HPCFluidP/../platforms/linux64GccDPInt32Opt/lib/libHPCFluidP_63d5e54c36062ac8244c795ca35af836c0ec24e6.so
Using dynamicCode for patch fluidBound on field T at line 92 in "/home/anthonygay1812/OpenFOAM/Working/finalShockTube/system/fluid/codeDict.HPCFluidT"
Creating new library in "dynamicCode/HPCFluidT/platforms/linux64GccDPInt32Opt/lib/libHPCFluidT_2fd85983a5f0f4b88787ebb8b00c02ad1ce8633d.so"
Invoking "wmake -s libso /home/anthonygay1812/OpenFOAM/Working/finalShockTube/dynamicCode/HPCFluidT"
wmake libso /home/anthonygay1812/OpenFOAM/Working/finalShockTube/dynamicCode/HPCFluidT
    ln: ./lnInclude
    wmkdep: fixedValueFvPatchFieldTemplate.C
    Ctoo: fixedValueFvPatchFieldTemplate.C
    ld: /home/anthonygay1812/OpenFOAM/Working/finalShockTube/dynamicCode/HPCFluidT/../platforms/linux64GccDPInt32Opt/lib/libHPCFluidT_2fd85983a5f0f4b88787ebb8b00c02ad1ce8633d.so
Reading field U

Using dynamicCode for patch fluidBound on field U at line 150 in "/home/anthonygay1812/OpenFOAM/Working/finalShockTube/system/fluid/codeDict.HPCFluidU"
Creating new library in "dynamicCode/HPCFluidU/platforms/linux64GccDPInt32Opt/lib/libHPCFluidU_111c7b3e4c3afb521e8f6f47a88dd49d130e37cc.so"
Invoking "wmake -s libso /home/anthonygay1812/OpenFOAM/Working/finalShockTube/dynamicCode/HPCFluidU"
wmake libso /home/anthonygay1812/OpenFOAM/Working/finalShockTube/dynamicCode/HPCFluidU
    ln: ./lnInclude
    wmkdep: fixedValueFvPatchFieldTemplate.C
    Ctoo: fixedValueFvPatchFieldTemplate.C
    ld: /home/anthonygay1812/OpenFOAM/Working/finalShockTube/dynamicCode/HPCFluidU/../platforms/linux64GccDPInt32Opt/lib/libHPCFluidU_111c7b3e4c3afb521e8f6f47a88dd49d130e37cc.so
Creating turbulence model

Selecting turbulence model type laminar
Selecting laminar stress model Stokes
fluxScheme: Kurganov
Initialising dsmc for Time = 0


Constructing constant properties for
    N2

Initialising particles

Knudsen:17597.9
Particle regime for cells 0 to 300

Knudsen:60659.6
Particle regime for cells 300 to 600

Total number of molecules added: 87951


ClockTime = 73 s


Constructing dsmcCloud 
Using dynamicCode for patch DSMCBound on field boundaryT at line 19 in "/home/anthonygay1812/OpenFOAM/Working/finalShockTube/system/particle/codeDict.HPCParticleT"
Creating new library in "dynamicCode/HPCParticleT/platforms/linux64GccDPInt32Opt/lib/libHPCParticleT_20b915806a40ca86fbcd1ff056a9a8ac25b3fd27.so"
Invoking "wmake -s libso /home/anthonygay1812/OpenFOAM/Working/finalShockTube/dynamicCode/HPCParticleT"
wmake libso /home/anthonygay1812/OpenFOAM/Working/finalShockTube/dynamicCode/HPCParticleT
    ln: ./lnInclude
    wmkdep: fixedValueFvPatchFieldTemplate.C
    Ctoo: fixedValueFvPatchFieldTemplate.C
    ld: /home/anthonygay1812/OpenFOAM/Working/finalShockTube/dynamicCode/HPCParticleT/../platforms/linux64GccDPInt32Opt/lib/libHPCParticleT_20b915806a40ca86fbcd1ff056a9a8ac25b3fd27.so
Using dynamicCode for patch DSMCBound on field boundaryU at line 33 in "/home/anthonygay1812/OpenFOAM/Working/finalShockTube/system/particle/codeDict.HPCParticleU"
Creating new library in "dynamicCode/HPCParticleU/platforms/linux64GccDPInt32Opt/lib/libHPCParticleU_91cdc58e2f6455ff40a78dfb25acd5bf700bc321.so"
Invoking "wmake -s libso /home/anthonygay1812/OpenFOAM/Working/finalShockTube/dynamicCode/HPCParticleU"
wmake libso /home/anthonygay1812/OpenFOAM/Working/finalShockTube/dynamicCode/HPCParticleU
    ln: ./lnInclude
    wmkdep: fixedValueFvPatchFieldTemplate.C
    Ctoo: fixedValueFvPatchFieldTemplate.C
    ld: /home/anthonygay1812/OpenFOAM/Working/finalShockTube/dynamicCode/HPCParticleU/../platforms/linux64GccDPInt32Opt/lib/libHPCParticleU_91cdc58e2f6455ff40a78dfb25acd5bf700bc321.so
Selecting BinaryCollisionModel LarsenBorgnakkeVariableHardSphere
Selecting WallInteractionModel MaxwellianThermal
Selecting InflowBoundaryModel oneDirectionalHybridDSMC

Constructing constant properties for
    N2
Time = 6e-06


Virtual Number Density of inserted particles: 22720.1
Used Temp: 900
Used Velocity: (0 0 0)
Delta T: 6e-06
mostProbableSpeed: 731.058
PFA: 1(28.113)
sCosTheta term: 1(0)    Particles inserted              = 28
    Collisions                      = 746425
    Acceptance rate                 = 0.963641

Cloud name: dsmc
    Number of dsmc particles        = 87945
    Number of molecules             = 3.5178e+22
    Mass in system                  = 0.00163578
    Average linear momentum         = (1.67746e-25 2.7738e-27 -6.69576e-26)
   |Average linear momentum|        = 1.80637e-25
    Average linear kinetic energy   = 1.65857e-20
    Average internal energy         = 9.80592e-21
    Average total energy            = 2.63916e-20
deltaT = 7.08e-06
Mean and max Courant Numbers = 0.21293 0.21293
diagonal:  Solving for rho, Initial residual = 0, Final residual = 0, No Iterations 0
diagonal:  Solving for rhoUx, Initial residual = 0, Final residual = 0, No Iterations 0
diagonal:  Solving for rhoE, Initial residual = 0, Final residual = 0, No Iterations 0

ExecutionTime = 4.52 s  ClockTime = 112 s  Iterations: 0.847458/203.39  Projected time to finish: 18.0047 min
Time = 1.308e-05


Virtual Number Density of inserted particles: 22720.1
Used Temp: 900
Used Velocity: (0 0 0)
Delta T: 7.08e-06
mostProbableSpeed: 731.058
PFA: 1(33.2864)
sCosTheta term: 1(0)    Particles inserted              = 33
    Collisions                      = 1114252
    Acceptance rate                 = 0.581205

Cloud name: dsmc
    Number of dsmc particles        = 87953
    Number of molecules             = 3.51812e+22
    Mass in system                  = 0.00163593
    Average linear momentum         = (1.88811e-25 5.09664e-27 -6.53398e-26)
   |Average linear momentum|        = 1.99862e-25
    Average linear kinetic energy   = 1.59331e-20
    Average internal energy         = 1.04607e-20
    Average total energy            = 2.63937e-20
deltaT = 6.54566e-06
Mean and max Courant Numbers = 0.19686 0.19686
diagonal:  Solving for rho, Initial residual = 0, Final residual = 0, No Iterations 0
diagonal:  Solving for rhoUx, Initial residual = 0, Final residual = 0, No Iterations 0
diagonal:  Solving for rhoE, Initial residual = 0, Final residual = 0, No Iterations 0

ExecutionTime = 7.08 s  ClockTime = 115 s  Iterations: 1.99827/219.993  Projected time to finish: 12.8728 min
Time = 1.96257e-05


Virtual Number Density of inserted particles: 22720.1
Used Temp: 900
Used Velocity: (0 0 0)
Delta T: 6.54566e-06
mostProbableSpeed: 731.058
PFA: 1(30.9561)
sCosTheta term: 1(0)    Particles inserted              = 31
    Collisions                      = 1028121
    Acceptance rate                 = 0.560124

Cloud name: dsmc
    Number of dsmc particles        = 87961
    Number of molecules             = 3.51844e+22
    Mass in system                  = 0.00163607
    Average linear momentum         = (2.06934e-25 5.41398e-27 -6.59272e-26)
   |Average linear momentum|        = 2.17249e-25
    Average linear kinetic energy   = 1.58339e-20
    Average internal energy         = 1.05599e-20
    Average total energy            = 2.63938e-20
deltaT = 6.54566e-06
Mean and max Courant Numbers = 0.19686 0.19686
diagonal:  Solving for rho, Initial residual = 0, Final residual = 0, No Iterations 0
diagonal:  Solving for rhoUx, Initial residual = 0, Final residual = 0, No Iterations 0
diagonal:  Solving for rhoE, Initial residual = 0, Final residual = 0, No Iterations 0

ExecutionTime = 9.63 s  ClockTime = 117 s  Iterations: 2.99827/219.993  Projected time to finish: 11.6159 min
Time = 2.61713e-05


Virtual Number Density of inserted particles: 22720.1
Used Temp: 900
Used Velocity: (0 0 0)
Delta T: 6.54566e-06
mostProbableSpeed: 731.058
PFA: 1(30.6259)
sCosTheta term: 1(0)    Particles inserted              = 30
    Collisions                      = 1029355
    Acceptance rate                 = 0.554087

Cloud name: dsmc
    Number of dsmc particles        = 87968
    Number of molecules             = 3.51872e+22
    Mass in system                  = 0.0016362
    Average linear momentum         = (2.21323e-25 5.32033e-27 -6.38195e-26)
   |Average linear momentum|        = 2.30402e-25
    Average linear kinetic energy   = 1.58236e-20
    Average internal energy         = 1.05717e-20
    Average total energy            = 2.63953e-20
deltaT = 6.54566e-06
Mean and max Courant Numbers = 0.19686 0.19686
diagonal:  Solving for rho, Initial residual = 0, Final residual = 0, No Iterations 0
diagonal:  Solving for rhoUx, Initial residual = 0, Final residual = 0, No Iterations 0
diagonal:  Solving for rhoE, Initial residual = 0, Final residual = 0, No Iterations 0

ExecutionTime = 11.9 s  ClockTime = 120 s  Iterations: 3.99827/219.993  Projected time to finish: 10.7144 min
Time = 3.2717e-05


Virtual Number Density of inserted particles: 22720.1
Used Temp: 900
Used Velocity: (0 0 0)
Delta T: 6.54566e-06
mostProbableSpeed: 731.058
PFA: 1(31.2956)
sCosTheta term: 1(0)    Particles inserted              = 32
    Collisions                      = 1028295
    Acceptance rate                 = 0.550077

Cloud name: dsmc
    Number of dsmc particles        = 87966
    Number of molecules             = 3.51864e+22
    Mass in system                  = 0.00163617
    Average linear momentum         = (2.41896e-25 3.6377e-27 -6.40257e-26)
   |Average linear momentum|        = 2.50252e-25
    Average linear kinetic energy   = 1.5784e-20
    Average internal energy         = 1.06093e-20
    Average total energy            = 2.63933e-20
deltaT = 6.54566e-06
Mean and max Courant Numbers = 0.19686 0.19686
diagonal:  Solving for rho, Initial residual = 0, Final residual = 0, No Iterations 0
diagonal:  Solving for rhoUx, Initial residual = 0, Final residual = 0, No Iterations 0
diagonal:  Solving for rhoE, Initial residual = 0, Final residual = 0, No Iterations 0

ExecutionTime = 14.24 s  ClockTime = 122 s  Iterations: 4.99827/219.993  Projected time to finish: 10.2086 min
Time = 3.92626e-05


Virtual Number Density of inserted particles: 22720.1
Used Temp: 900
Used Velocity: (0 0 0)
Delta T: 6.54566e-06
mostProbableSpeed: 731.058
PFA: 1(29.9653)
sCosTheta term: 1(0)    Particles inserted              = 30
    Collisions                      = 1028779
    Acceptance rate                 = 0.547819

Cloud name: dsmc
    Number of dsmc particles        = 87960
    Number of molecules             = 3.5184e+22
    Mass in system                  = 0.00163606
    Average linear momentum         = (2.61691e-25 7.94825e-27 -6.20932e-26)
   |Average linear momentum|        = 2.69074e-25
    Average linear kinetic energy   = 1.58439e-20
    Average internal energy         = 1.05465e-20
    Average total energy            = 2.63903e-20
deltaT = 6.54566e-06
Mean and max Courant Numbers = 0.19686 0.19686
diagonal:  Solving for rho, Initial residual = 0, Final residual = 0, No Iterations 0
diagonal:  Solving for rhoUx, Initial residual = 0, Final residual = 0, No Iterations 0
diagonal:  Solving for rhoE, Initial residual = 0, Final residual = 0, No Iterations 0

ExecutionTime = 16.6 s  ClockTime = 125 s  Iterations: 5.99827/219.993  Projected time to finish: 9.87038 min
Time = 4.58083e-05


Virtual Number Density of inserted particles: 22720.1
Used Temp: 900
Used Velocity: (0 0 0)
Delta T: 6.54566e-06
mostProbableSpeed: 731.058
PFA: 1(30.635)
sCosTheta term: 1(0)    Particles inserted              = 31
    Collisions                      = 1027677
    Acceptance rate                 = 0.544326

Cloud name: dsmc
    Number of dsmc particles        = 87965
    Number of molecules             = 3.5186e+22
    Mass in system                  = 0.00163615
    Average linear momentum         = (2.7708e-25 4.38448e-27 -6.60417e-26)
   |Average linear momentum|        = 2.84876e-25
    Average linear kinetic energy   = 1.58682e-20
    Average internal energy         = 1.05265e-20
    Average total energy            = 2.63946e-20
deltaT = 6.54566e-06
Mean and max Courant Numbers = 0.19686 0.19686
diagonal:  Solving for rho, Initial residual = 0, Final residual = 0, No Iterations 0
diagonal:  Solving for rhoUx, Initial residual = 0, Final residual = 0, No Iterations 0
diagonal:  Solving for rhoE, Initial residual = 0, Final residual = 0, No Iterations 0

ExecutionTime = 19.1 s  ClockTime = 127 s  Iterations: 6.99827/219.993  Projected time to finish: 9.68859 min
Time = 5.2354e-05


Virtual Number Density of inserted particles: 22720.1
Used Temp: 900
Used Velocity: (0 0 0)
Delta T: 6.54566e-06
mostProbableSpeed: 731.058
PFA: 1(30.3048)
sCosTheta term: 1(0)    Particles inserted              = 30
    Collisions                      = 1027414
    Acceptance rate                 = 0.54292

Cloud name: dsmc
    Number of dsmc particles        = 87963
    Number of molecules             = 3.51852e+22
    Mass in system                  = 0.00163611
    Average linear momentum         = (2.96348e-25 1.03025e-27 -6.50274e-26)
   |Average linear momentum|        = 3.034e-25
    Average linear kinetic energy   = 1.58052e-20
    Average internal energy         = 1.05866e-20
    Average total energy            = 2.63918e-20
deltaT = 6.54566e-06
Mean and max Courant Numbers = 0.19686 0.19686
diagonal:  Solving for rho, Initial residual = 0, Final residual = 0, No Iterations 0
diagonal:  Solving for rhoUx, Initial residual = 0, Final residual = 0, No Iterations 0
diagonal:  Solving for rhoE, Initial residual = 0, Final residual = 0, No Iterations 0

ExecutionTime = 21.38 s  ClockTime = 130 s  Iterations: 7.99827/219.993  Projected time to finish: 9.44464 min
Time = 5.88996e-05


Virtual Number Density of inserted particles: 22720.1
Used Temp: 900
Used Velocity: (0 0 0)
Delta T: 6.54566e-06
mostProbableSpeed: 731.058
PFA: 1(30.9745)
sCosTheta term: 1(0)    Particles inserted              = 31
    Collisions                      = 1028504
    Acceptance rate                 = 0.542058

Cloud name: dsmc
    Number of dsmc particles        = 87971
    Number of molecules             = 3.51884e+22
    Mass in system                  = 0.00163626
    Average linear momentum         = (3.14408e-25 3.28618e-27 -6.6414e-26)
   |Average linear momentum|        = 3.21363e-25
    Average linear kinetic energy   = 1.58701e-20
    Average internal energy         = 1.0522e-20
    Average total energy            = 2.63921e-20
deltaT = 6.54566e-06
Mean and max Courant Numbers = 0.19686 0.19686
diagonal:  Solving for rho, Initial residual = 0, Final residual = 0, No Iterations 0
diagonal:  Solving for rhoUx, Initial residual = 0, Final residual = 0, No Iterations 0
diagonal:  Solving for rhoE, Initial residual = 0, Final residual = 0, No Iterations 0

ExecutionTime = 23.8 s  ClockTime = 132 s  Iterations: 8.99827/219.993  Projected time to finish: 9.30119 min
Time = 6.54453e-05


Virtual Number Density of inserted particles: 22720.1
Used Temp: 900
Used Velocity: (0 0 0)
Delta T: 6.54566e-06
mostProbableSpeed: 731.058
PFA: 1(30.6442)
sCosTheta term: 1(0)    Particles inserted              = 30
    Collisions                      = 1026674
    Acceptance rate                 = 0.539721

Cloud name: dsmc
    Number of dsmc particles        = 87977
    Number of molecules             = 3.51908e+22
    Mass in system                  = 0.00163637
    Average linear momentum         = (3.32466e-25 5.58157e-27 -6.89846e-26)
   |Average linear momentum|        = 3.39594e-25
    Average linear kinetic energy   = 1.58478e-20
    Average internal energy         = 1.05476e-20
    Average total energy            = 2.63954e-20
deltaT = 6.54566e-06
Mean and max Courant Numbers = 0.19686 0.19686
diagonal:  Solving for rho, Initial residual = 0, Final residual = 0, No Iterations 0
diagonal:  Solving for rhoUx, Initial residual = 0, Final residual = 0, No Iterations 0
diagonal:  Solving for rhoE, Initial residual = 0, Final residual = 0, No Iterations 0

ExecutionTime = 26.15 s  ClockTime = 135 s  Iterations: 9.99827/219.993  Projected time to finish: 9.15386 min
Time = 7.19909e-05


Virtual Number Density of inserted particles: 22720.1
Used Temp: 900
Used Velocity: (0 0 0)
Delta T: 6.54566e-06
mostProbableSpeed: 731.058
PFA: 1(31.314)
sCosTheta term: 1(0)    Particles inserted              = 31
    Collisions                      = 1026117
    Acceptance rate                 = 0.538171

Cloud name: dsmc
    Number of dsmc particles        = 87967
    Number of molecules             = 3.51868e+22
    Mass in system                  = 0.00163619
    Average linear momentum         = (3.54055e-25 7.55484e-29 -7.42561e-26)
   |Average linear momentum|        = 3.61758e-25
    Average linear kinetic energy   = 1.5822e-20
    Average internal energy         = 1.05699e-20
    Average total energy            = 2.63919e-20
deltaT = 6.54566e-06
Mean and max Courant Numbers = 0.19686 0.19686
diagonal:  Solving for rho, Initial residual = 0, Final residual = 0, No Iterations 0
diagonal:  Solving for rhoUx, Initial residual = 0, Final residual = 0, No Iterations 0
diagonal:  Solving for rhoE, Initial residual = 0, Final residual = 0, No Iterations 0

ExecutionTime = 28.56 s  ClockTime = 137 s  Iterations: 10.9983/219.993  Projected time to finish: 9.0452 min
Time = 7.85366e-05


Virtual Number Density of inserted particles: 22720.1
Used Temp: 900
Used Velocity: (0 0 0)
Delta T: 6.54566e-06
mostProbableSpeed: 731.058
PFA: 1(30.9837)
sCosTheta term: 1(0)    Particles inserted              = 31
    Collisions                      = 1027140
    Acceptance rate                 = 0.53769

Cloud name: dsmc
    Number of dsmc particles        = 87971
    Number of molecules             = 3.51884e+22
    Mass in system                  = 0.00163626
    Average linear momentum         = (3.72818e-25 2.00629e-27 -6.93276e-26)
   |Average linear momentum|        = 3.79214e-25
    Average linear kinetic energy   = 1.58669e-20
    Average internal energy         = 1.05259e-20
    Average total energy            = 2.63929e-20
deltaT = 6.54566e-06
Mean and max Courant Numbers = 0.19686 0.19686
diagonal:  Solving for rho, Initial residual = 0, Final residual = 0, No Iterations 0
diagonal:  Solving for rhoUx, Initial residual = 0, Final residual = 0, No Iterations 0
diagonal:  Solving for rhoE, Initial residual = 0, Final residual = 0, No Iterations 0

ExecutionTime = 30.96 s  ClockTime = 139 s  Iterations: 11.9983/219.993  Projected time to finish: 8.94507 min
Time = 8.50823e-05


Virtual Number Density of inserted particles: 22720.1
Used Temp: 900
Used Velocity: (0 0 0)
Delta T: 6.54566e-06
mostProbableSpeed: 731.058
PFA: 1(30.6534)
sCosTheta term: 1(0)    Particles inserted              = 30
    Collisions                      = 1026232
    Acceptance rate                 = 0.53626

Cloud name: dsmc
    Number of dsmc particles        = 87976
    Number of molecules             = 3.51904e+22
    Mass in system                  = 0.00163635
    Average linear momentum         = (3.89788e-25 7.3976e-28 -6.711e-26)
   |Average linear momentum|        = 3.95524e-25
    Average linear kinetic energy   = 1.58422e-20
    Average internal energy         = 1.05494e-20
    Average total energy            = 2.63916e-20
deltaT = 6.54566e-06
Mean and max Courant Numbers = 0.19686 0.19686
diagonal:  Solving for rho, Initial residual = 0, Final residual = 0, No Iterations 0
diagonal:  Solving for rhoUx, Initial residual = 0, Final residual = 0, No Iterations 0
diagonal:  Solving for rhoE, Initial residual = 0, Final residual = 0, No Iterations 0

ExecutionTime = 33.42 s  ClockTime = 142 s  Iterations: 12.9983/219.993  Projected time to finish: 8.87011 min
Time = 9.16279e-05


Virtual Number Density of inserted particles: 22720.1
Used Temp: 900
Used Velocity: (0 0 0)
Delta T: 6.54566e-06
mostProbableSpeed: 731.058
PFA: 1(31.3231)
sCosTheta term: 1(0)    Particles inserted              = 31
    Collisions                      = 1025104
    Acceptance rate                 = 0.535063

Cloud name: dsmc
    Number of dsmc particles        = 87974
    Number of molecules             = 3.51896e+22
    Mass in system                  = 0.00163632
    Average linear momentum         = (4.13274e-25 -6.57961e-28 -6.5861e-26)
   |Average linear momentum|        = 4.1849e-25
    Average linear kinetic energy   = 1.58686e-20
    Average internal energy         = 1.05167e-20
    Average total energy            = 2.63853e-20
deltaT = 6.54566e-06
Mean and max Courant Numbers = 0.19686 0.19686
diagonal:  Solving for rho, Initial residual = 0, Final residual = 0, No Iterations 0
diagonal:  Solving for rhoUx, Initial residual = 0, Final residual = 0, No Iterations 0
diagonal:  Solving for rhoE, Initial residual = 0, Final residual = 0, No Iterations 0

ExecutionTime = 35.79 s  ClockTime = 144 s  Iterations: 13.9983/219.993  Projected time to finish: 8.77793 min
Time = 9.81736e-05


Virtual Number Density of inserted particles: 22720.1
Used Temp: 900
Used Velocity: (0 0 0)
Delta T: 6.54566e-06
mostProbableSpeed: 731.058
PFA: 1(30.9929)
sCosTheta term: 1(0)    Particles inserted              = 31
    Collisions                      = 1025603
    Acceptance rate                 = 0.534485

Cloud name: dsmc
    Number of dsmc particles        = 87970
    Number of molecules             = 3.5188e+22
    Mass in system                  = 0.00163624
    Average linear momentum         = (4.33681e-25 6.67406e-28 -6.83628e-26)
   |Average linear momentum|        = 4.39037e-25
    Average linear kinetic energy   = 1.58472e-20
    Average internal energy         = 1.05375e-20
    Average total energy            = 2.63847e-20
deltaT = 6.54566e-06
Mean and max Courant Numbers = 0.19686 0.19686
diagonal:  Solving for rho, Initial residual = 0, Final residual = 0, No Iterations 0
diagonal:  Solving for rhoUx, Initial residual = 0, Final residual = 0, No Iterations 0
diagonal:  Solving for rhoE, Initial residual = 0, Final residual = 0, No Iterations 0

ExecutionTime = 38.24 s  ClockTime = 147 s  Iterations: 14.9983/219.993  Projected time to finish: 8.71101 min
Time = 0.000104719


Virtual Number Density of inserted particles: 22720.1
Used Temp: 900
Used Velocity: (0 0 0)
Delta T: 6.54566e-06
mostProbableSpeed: 731.058
PFA: 1(30.6626)
sCosTheta term: 1(0)    Particles inserted              = 31
    Collisions                      = 1026785
    Acceptance rate                 = 0.534395

Cloud name: dsmc
    Number of dsmc particles        = 87986
    Number of molecules             = 3.51944e+22
    Mass in system                  = 0.00163654
    Average linear momentum         = (4.48352e-25 -1.72455e-27 -6.67714e-26)
   |Average linear momentum|        = 4.533e-25
    Average linear kinetic energy   = 1.58889e-20
    Average internal energy         = 1.04987e-20
    Average total energy            = 2.63876e-20
deltaT = 6.54566e-06
Mean and max Courant Numbers = 0.19686 0.19686
diagonal:  Solving for rho, Initial residual = 0, Final residual = 0, No Iterations 0
diagonal:  Solving for rhoUx, Initial residual = 0, Final residual = 0, No Iterations 0
diagonal:  Solving for rhoE, Initial residual = 0, Final residual = 0, No Iterations 0

ExecutionTime = 40.65 s  ClockTime = 149 s  Iterations: 15.9983/219.993  Projected time to finish: 8.63884 min
Time = 0.000111265


Virtual Number Density of inserted particles: 22720.1
Used Temp: 900
Used Velocity: (0 0 0)
Delta T: 6.54566e-06
mostProbableSpeed: 731.058
PFA: 1(30.3323)
sCosTheta term: 1(0)    Particles inserted              = 31
    Collisions                      = 1024453
    Acceptance rate                 = 0.531913

Cloud name: dsmc
    Number of dsmc particles        = 87986
    Number of molecules             = 3.51944e+22
    Mass in system                  = 0.00163654
    Average linear momentum         = (4.68767e-25 -4.10847e-27 -6.79748e-26)
   |Average linear momentum|        = 4.73688e-25
    Average linear kinetic energy   = 1.5851e-20
    Average internal energy         = 1.05333e-20
    Average total energy            = 2.63843e-20
deltaT = 6.54566e-06
Mean and max Courant Numbers = 0.19686 0.19686
diagonal:  Solving for rho, Initial residual = 0, Final residual = 0, No Iterations 0
diagonal:  Solving for rhoUx, Initial residual = 0, Final residual = 0, No Iterations 0
diagonal:  Solving for rhoE, Initial residual = 0, Final residual = 0, No Iterations 0

ExecutionTime = 43.09 s  ClockTime = 152 s  Iterations: 16.9983/219.993  Projected time to finish: 8.57641 min
Time = 0.000117811


Virtual Number Density of inserted particles: 22720.1
Used Temp: 900
Used Velocity: (0 0 0)
Delta T: 6.54566e-06
mostProbableSpeed: 731.058
PFA: 1(30.0021)
sCosTheta term: 1(0)    Particles inserted              = 30
    Collisions                      = 1023758
    Acceptance rate                 = 0.531252

Cloud name: dsmc
    Number of dsmc particles        = 87985
    Number of molecules             = 3.5194e+22
    Mass in system                  = 0.00163652
    Average linear momentum         = (4.88324e-25 -2.66065e-27 -6.89447e-26)
   |Average linear momentum|        = 4.93174e-25
    Average linear kinetic energy   = 1.58217e-20
    Average internal energy         = 1.05634e-20
    Average total energy            = 2.63851e-20
deltaT = 6.54566e-06
Mean and max Courant Numbers = 0.19686 0.19686
diagonal:  Solving for rho, Initial residual = 0, Final residual = 0, No Iterations 0
diagonal:  Solving for rhoUx, Initial residual = 0, Final residual = 0, No Iterations 0
diagonal:  Solving for rhoE, Initial residual = 0, Final residual = 0, No Iterations 0

ExecutionTime = 45.45 s  ClockTime = 154 s  Iterations: 17.9983/219.993  Projected time to finish: 8.50143 min
Time = 0.000124356


Virtual Number Density of inserted particles: 22720.1
Used Temp: 900
Used Velocity: (0 0 0)
Delta T: 6.54566e-06
mostProbableSpeed: 731.058
PFA: 1(30.6718)
sCosTheta term: 1(0)    Particles inserted              = 31
    Collisions                      = 1025198
    Acceptance rate                 = 0.531472

Cloud name: dsmc
    Number of dsmc particles        = 87984
    Number of molecules             = 3.51936e+22
    Mass in system                  = 0.0016365
    Average linear momentum         = (5.11642e-25 -5.02759e-27 -6.98709e-26)
   |Average linear momentum|        = 5.16415e-25
    Average linear kinetic energy   = 1.58739e-20
    Average internal energy         = 1.05085e-20
    Average total energy            = 2.63825e-20
deltaT = 6.54566e-06
Mean and max Courant Numbers = 0.19686 0.19686
diagonal:  Solving for rho, Initial residual = 0, Final residual = 0, No Iterations 0
diagonal:  Solving for rhoUx, Initial residual = 0, Final residual = 0, No Iterations 0
diagonal:  Solving for rhoE, Initial residual = 0, Final residual = 0, No Iterations 0

ExecutionTime = 47.94 s  ClockTime = 157 s  Iterations: 18.9983/219.993  Projected time to finish: 8.45313 min
Time = 0.000130902


Virtual Number Density of inserted particles: 22720.1
Used Temp: 900
Used Velocity: (4.25846e-14 0 0)
Delta T: 6.54566e-06
mostProbableSpeed: 731.058
PFA: 1(30.3415)
sCosTheta term: 1(5.82507e-17)    Particles inserted              = 31
    Collisions                      = 1025807
    Acceptance rate                 = 0.531415

Cloud name: dsmc
    Number of dsmc particles        = 87994
    Number of molecules             = 3.51976e+22
    Mass in system                  = 0.00163669
    Average linear momentum         = (5.28534e-25 -6.9172e-27 -6.93707e-26)
   |Average linear momentum|        = 5.33112e-25
    Average linear kinetic energy   = 1.58491e-20
    Average internal energy         = 1.05344e-20
    Average total energy            = 2.63835e-20
deltaT = 6.54566e-06
Mean and max Courant Numbers = 0.19686 0.19686
diagonal:  Solving for rho, Initial residual = 0, Final residual = 0, No Iterations 0
diagonal:  Solving for rhoUx, Initial residual = 0, Final residual = 0, No Iterations 0
diagonal:  Solving for rhoE, Initial residual = 0, Final residual = 0, No Iterations 0

ExecutionTime = 50.3 s  ClockTime = 159 s  Iterations: 19.9983/219.993  Projected time to finish: 8.38384 min
Time = 0.000137448


Virtual Number Density of inserted particles: 22720.1
Used Temp: 900
Used Velocity: (8.51693e-14 0 0)
Delta T: 6.54566e-06
mostProbableSpeed: 731.058
PFA: 1(30.0112)
sCosTheta term: 1(1.16501e-16)    Particles inserted              = 30
    Collisions                      = 1025630
    Acceptance rate                 = 0.53098

Cloud name: dsmc
    Number of dsmc particles        = 88001
    Number of molecules             = 3.52004e+22
    Mass in system                  = 0.00163682
    Average linear momentum         = (5.4695e-25 -4.41913e-27 -7.24161e-26)
   |Average linear momentum|        = 5.5174e-25
    Average linear kinetic energy   = 1.58989e-20
    Average internal energy         = 1.04847e-20
    Average total energy            = 2.63836e-20
deltaT = 6.54566e-06
Mean and max Courant Numbers = 0.19686 0.19686
diagonal:  Solving for rho, Initial residual = 0, Final residual = 0, No Iterations 0
diagonal:  Solving for rhoUx, Initial residual = 0, Final residual = 0, No Iterations 0
diagonal:  Solving for rhoE, Initial residual = 0, Final residual = 0, No Iterations 0

ExecutionTime = 52.73 s  ClockTime = 162 s  Iterations: 20.9983/219.993  Projected time to finish: 8.32846 min
Time = 0.000143993


Virtual Number Density of inserted particles: 22720.1
Used Temp: 900
Used Velocity: (1.27754e-13 0 0)
Delta T: 6.54566e-06
mostProbableSpeed: 731.058
PFA: 1(30.681)
sCosTheta term: 1(1.74752e-16)    Particles inserted              = 31
    Collisions                      = 1024390
    Acceptance rate                 = 0.530094

Cloud name: dsmc
    Number of dsmc particles        = 87998
    Number of molecules             = 3.51992e+22
    Mass in system                  = 0.00163676
    Average linear momentum         = (5.68018e-25 -4.48441e-27 -7.12137e-26)
   |Average linear momentum|        = 5.72482e-25
    Average linear kinetic energy   = 1.58516e-20
    Average internal energy         = 1.05332e-20
    Average total energy            = 2.63848e-20
deltaT = 6.54566e-06
Mean and max Courant Numbers = 0.19686 0.19686
diagonal:  Solving for rho, Initial residual = 0, Final residual = 0, No Iterations 0
diagonal:  Solving for rhoUx, Initial residual = 0, Final residual = 0, No Iterations 0
diagonal:  Solving for rhoE, Initial residual = 0, Final residual = 0, No Iterations 0

ExecutionTime = 55.2 s  ClockTime = 164 s  Iterations: 21.9983/219.993  Projected time to finish: 8.28043 min
Time = 0.000150539


Virtual Number Density of inserted particles: 22720.1
Used Temp: 900
Used Velocity: (1.70339e-13 0 0)
Delta T: 6.54566e-06
mostProbableSpeed: 731.058
PFA: 1(30.3507)
sCosTheta term: 1(2.33003e-16)    Particles inserted              = 30
    Collisions                      = 1023334
    Acceptance rate                 = 0.528757

Cloud name: dsmc
    Number of dsmc particles        = 88000
    Number of molecules             = 3.52e+22
    Mass in system                  = 0.0016368
    Average linear momentum         = (5.85991e-25 -4.3292e-27 -7.24254e-26)
   |Average linear momentum|        = 5.90465e-25
    Average linear kinetic energy   = 1.5843e-20
    Average internal energy         = 1.05462e-20
    Average total energy            = 2.63892e-20
deltaT = 6.54566e-06
Mean and max Courant Numbers = 0.19686 0.19686
diagonal:  Solving for rho, Initial residual = 0, Final residual = 0, No Iterations 0
diagonal:  Solving for rhoUx, Initial residual = 0, Final residual = 0, No Iterations 0
diagonal:  Solving for rhoE, Initial residual = 0, Final residual = 0, No Iterations 0

ExecutionTime = 57.62 s  ClockTime = 167 s  Iterations: 22.9983/219.993  Projected time to finish: 8.22587 min
Time = 0.000157085


Virtual Number Density of inserted particles: 22720.1
Used Temp: 900
Used Velocity: (1.06462e-13 0 0)
Delta T: 6.54566e-06
mostProbableSpeed: 731.058
PFA: 1(31.0204)
sCosTheta term: 1(1.45627e-16)    Particles inserted              = 31
    Collisions                      = 1023534
    Acceptance rate                 = 0.528523

Cloud name: dsmc
    Number of dsmc particles        = 88006
    Number of molecules             = 3.52024e+22
    Mass in system                  = 0.00163691
    Average linear momentum         = (6.02112e-25 -6.80294e-27 -7.22221e-26)
   |Average linear momentum|        = 6.06466e-25
    Average linear kinetic energy   = 1.58249e-20
    Average internal energy         = 1.05608e-20
    Average total energy            = 2.63857e-20
deltaT = 6.54566e-06
Mean and max Courant Numbers = 0.19686 0.19686
diagonal:  Solving for rho, Initial residual = 0, Final residual = 0, No Iterations 0
diagonal:  Solving for rhoUx, Initial residual = 0, Final residual = 0, No Iterations 0
diagonal:  Solving for rhoE, Initial residual = 0, Final residual = 0, No Iterations 0

ExecutionTime = 60.04 s  ClockTime = 169 s  Iterations: 23.9983/219.993  Projected time to finish: 8.17248 min
Time = 0.00016363


Virtual Number Density of inserted particles: 22720.1
Used Temp: 900
Used Velocity: (6.3877e-14 0 0)
Delta T: 6.54566e-06
mostProbableSpeed: 731.058
PFA: 1(30.6901)
sCosTheta term: 1(8.73761e-17)    Particles inserted              = 31
    Collisions                      = 1023962
    Acceptance rate                 = 0.528384

Cloud name: dsmc
    Number of dsmc particles        = 88005
    Number of molecules             = 3.5202e+22
    Mass in system                  = 0.00163689
    Average linear momentum         = (6.21358e-25 -9.17592e-27 -6.96512e-26)
   |Average linear momentum|        = 6.25317e-25
    Average linear kinetic energy   = 1.58302e-20
    Average internal energy         = 1.05539e-20
    Average total energy            = 2.63841e-20
deltaT = 6.54566e-06
Mean and max Courant Numbers = 0.19686 0.19686
diagonal:  Solving for rho, Initial residual = 0, Final residual = 0, No Iterations 0
diagonal:  Solving for rhoUx, Initial residual = 0, Final residual = 0, No Iterations 0
diagonal:  Solving for rhoE, Initial residual = 0, Final residual = 0, No Iterations 0

ExecutionTime = 62.55 s  ClockTime = 171 s  Iterations: 24.9983/219.993  Projected time to finish: 8.13185 min
Time = 0.000170176


Virtual Number Density of inserted particles: 22720.1
Used Temp: 900
Used Velocity: (2.12923e-14 0 0)
Delta T: 6.54566e-06
mostProbableSpeed: 731.058
PFA: 1(30.3599)
sCosTheta term: 1(2.91254e-17)    Particles inserted              = 30
    Collisions                      = 1020410
    Acceptance rate                 = 0.526352

Cloud name: dsmc
    Number of dsmc particles        = 88000
    Number of molecules             = 3.52e+22
    Mass in system                  = 0.0016368
    Average linear momentum         = (6.39755e-25 -7.33184e-27 -6.7692e-26)
   |Average linear momentum|        = 6.43368e-25
    Average linear kinetic energy   = 1.58425e-20
    Average internal energy         = 1.05413e-20
    Average total energy            = 2.63839e-20
deltaT = 6.54566e-06
Mean and max Courant Numbers = 0.19686 0.19686
diagonal:  Solving for rho, Initial residual = 0, Final residual = 0, No Iterations 0
diagonal:  Solving for rhoUx, Initial residual = 0, Final residual = 0, No Iterations 0
diagonal:  Solving for rhoE, Initial residual = 0, Final residual = 0, No Iterations 0

ExecutionTime = 64.99 s  ClockTime = 174 s  Iterations: 25.9983/219.993  Projected time to finish: 8.08241 min
Time = 0.000176722


Virtual Number Density of inserted particles: 22720.1
Used Temp: 900
Used Velocity: (-2.12923e-14 0 0)
Delta T: 6.54566e-06
mostProbableSpeed: 731.058
PFA: 1(31.0296)
sCosTheta term: 1(-2.91254e-17)    Particles inserted              = 31
    Collisions                      = 1021383
    Acceptance rate                 = 0.526563

Cloud name: dsmc
    Number of dsmc particles        = 87989
    Number of molecules             = 3.51956e+22
    Mass in system                  = 0.0016366
    Average linear momentum         = (6.64819e-25 -8.52194e-27 -6.86435e-26)
   |Average linear momentum|        = 6.68407e-25
    Average linear kinetic energy   = 1.59034e-20
    Average internal energy         = 1.04809e-20
    Average total energy            = 2.63843e-20
deltaT = 6.54566e-06
Mean and max Courant Numbers = 0.19686 0.19686
diagonal:  Solving for rho, Initial residual = 0, Final residual = 0, No Iterations 0
diagonal:  Solving for rhoUx, Initial residual = 0, Final residual = 0, No Iterations 0
diagonal:  Solving for rhoE, Initial residual = 0, Final residual = 0, No Iterations 0

ExecutionTime = 67.44 s  ClockTime = 176 s  Iterations: 26.9983/219.993  Projected time to finish: 8.03482 min
Time = 0.000183267


Virtual Number Density of inserted particles: 22720.1
Used Temp: 900
Used Velocity: (-6.3877e-14 0 0)
Delta T: 6.54566e-06
mostProbableSpeed: 731.058
PFA: 1(30.6993)
sCosTheta term: 1(-8.73761e-17)    Particles inserted              = 31
    Collisions                      = 1022114
    Acceptance rate                 = 0.526528

Cloud name: dsmc
    Number of dsmc particles        = 87997
    Number of molecules             = 3.51988e+22
    Mass in system                  = 0.00163674
    Average linear momentum         = (6.80009e-25 -8.83973e-27 -6.66575e-26)
   |Average linear momentum|        = 6.83325e-25
    Average linear kinetic energy   = 1.5878e-20
    Average internal energy         = 1.05101e-20
    Average total energy            = 2.63881e-20
deltaT = 6.54566e-06
Mean and max Courant Numbers = 0.19686 0.19686
diagonal:  Solving for rho, Initial residual = 0, Final residual = 0, No Iterations 0
diagonal:  Solving for rhoUx, Initial residual = 0, Final residual = 0, No Iterations 0
diagonal:  Solving for rhoE, Initial residual = 0, Final residual = 0, No Iterations 0

ExecutionTime = 69.88 s  ClockTime = 179 s  Iterations: 27.9983/219.993  Projected time to finish: 7.98656 min
Time = 0.000189813


Virtual Number Density of inserted particles: 22720.1
Used Temp: 900
Used Velocity: (-8.51693e-14 0 0)
Delta T: 6.54566e-06
mostProbableSpeed: 731.058
PFA: 1(30.3691)
sCosTheta term: 1(-1.16501e-16)    Particles inserted              = 30
    Collisions                      = 1020748
    Acceptance rate                 = 0.525774

Cloud name: dsmc
    Number of dsmc particles        = 88001
    Number of molecules             = 3.52004e+22
    Mass in system                  = 0.00163682
    Average linear momentum         = (6.98276e-25 -8.30824e-27 -7.06237e-26)
   |Average linear momentum|        = 7.01888e-25
    Average linear kinetic energy   = 1.58468e-20
    Average internal energy         = 1.05418e-20
    Average total energy            = 2.63886e-20
deltaT = 6.54566e-06
Mean and max Courant Numbers = 0.19686 0.19686
diagonal:  Solving for rho, Initial residual = 0, Final residual = 0, No Iterations 0
diagonal:  Solving for rhoUx, Initial residual = 0, Final residual = 0, No Iterations 0
diagonal:  Solving for rhoE, Initial residual = 0, Final residual = 0, No Iterations 0

ExecutionTime = 72.39 s  ClockTime = 182 s  Iterations: 28.9983/219.993  Projected time to finish: 7.94652 min
Time = 0.000196358


Virtual Number Density of inserted particles: 22720.1
Used Temp: 900
Used Velocity: (-1.06462e-13 0 0)
Delta T: 6.54566e-06
mostProbableSpeed: 731.058
PFA: 1(31.0388)
sCosTheta term: 1(-1.45627e-16)    Particles inserted              = 31
    Collisions                      = 1021645
    Acceptance rate                 = 0.52587

Cloud name: dsmc
    Number of dsmc particles        = 88001
    Number of molecules             = 3.52004e+22
    Mass in system                  = 0.00163682
    Average linear momentum         = (7.1922e-25 -6.49805e-27 -6.95541e-26)
   |Average linear momentum|        = 7.22605e-25
    Average linear kinetic energy   = 1.58642e-20
    Average internal energy         = 1.05196e-20
    Average total energy            = 2.63837e-20
deltaT = 6.54566e-06
Mean and max Courant Numbers = 0.19686 0.19686
diagonal:  Solving for rho, Initial residual = 0, Final residual = 0, No Iterations 0
diagonal:  Solving for rhoUx, Initial residual = 0, Final residual = 0, No Iterations 0
diagonal:  Solving for rhoE, Initial residual = 0, Final residual = 0, No Iterations 0

ExecutionTime = 74.77 s  ClockTime = 184 s  Iterations: 29.9983/219.993  Projected time to finish: 7.89263 min
Time = 0.000202904


Virtual Number Density of inserted particles: 22720.1
Used Temp: 900
Used Velocity: (-8.51693e-14 0 0)
Delta T: 6.54566e-06
mostProbableSpeed: 731.058
PFA: 1(30.7085)
sCosTheta term: 1(-1.16501e-16)    Particles inserted              = 31
    Collisions                      = 1021227
    Acceptance rate                 = 0.52538

Cloud name: dsmc
    Number of dsmc particles        = 88007
    Number of molecules             = 3.52028e+22
    Mass in system                  = 0.00163693
    Average linear momentum         = (7.38276e-25 -4.01092e-27 -6.8986e-26)
   |Average linear momentum|        = 7.41502e-25
    Average linear kinetic energy   = 1.58812e-20
    Average internal energy         = 1.05065e-20
    Average total energy            = 2.63878e-20
deltaT = 6.54566e-06
Mean and max Courant Numbers = 0.19686 0.19686
diagonal:  Solving for rho, Initial residual = 0, Final residual = 0, No Iterations 0
diagonal:  Solving for rhoUx, Initial residual = 0, Final residual = 0, No Iterations 0
diagonal:  Solving for rhoE, Initial residual = 0, Final residual = 0, No Iterations 0

ExecutionTime = 77.27 s  ClockTime = 187 s  Iterations: 30.9983/219.993  Projected time to finish: 7.85185 min
Time = 0.00020945


Virtual Number Density of inserted particles: 22720.1
Used Temp: 900
Used Velocity: (-2.12923e-14 0 0)
Delta T: 6.54566e-06
mostProbableSpeed: 731.058
PFA: 1(30.3782)
sCosTheta term: 1(-2.91254e-17)    Particles inserted              = 31
    Collisions                      = 1019642
    Acceptance rate                 = 0.524651

Cloud name: dsmc
    Number of dsmc particles        = 88003
    Number of molecules             = 3.52012e+22
    Mass in system                  = 0.00163686
    Average linear momentum         = (7.58608e-25 -7.10985e-27 -7.18909e-26)
   |Average linear momentum|        = 7.6204e-25
    Average linear kinetic energy   = 1.58761e-20
    Average internal energy         = 1.05128e-20
    Average total energy            = 2.63889e-20
deltaT = 6.54566e-06
Mean and max Courant Numbers = 0.19686 0.19686
diagonal:  Solving for rho, Initial residual = 0, Final residual = 0, No Iterations 0
diagonal:  Solving for rhoUx, Initial residual = 0, Final residual = 0, No Iterations 0
diagonal:  Solving for rhoE, Initial residual = 0, Final residual = 0, No Iterations 0

ExecutionTime = 79.75 s  ClockTime = 189 s  Iterations: 31.9983/219.993  Projected time to finish: 7.80906 min
Time = 0.000215995


Virtual Number Density of inserted particles: 22720.1
Used Temp: 900
Used Velocity: (-2.12923e-14 0 0)
Delta T: 6.54566e-06
mostProbableSpeed: 731.058
PFA: 1(30.048)
sCosTheta term: 1(-2.91254e-17)    Particles inserted              = 30
    Collisions                      = 1020543
    Acceptance rate                 = 0.52501

Cloud name: dsmc
    Number of dsmc particles        = 88007
    Number of molecules             = 3.52028e+22
    Mass in system                  = 0.00163693
    Average linear momentum         = (7.76742e-25 -4.72093e-27 -7.33765e-26)
   |Average linear momentum|        = 7.80214e-25
    Average linear kinetic energy   = 1.58501e-20
    Average internal energy         = 1.05381e-20
    Average total energy            = 2.63881e-20
deltaT = 6.54566e-06
Mean and max Courant Numbers = 0.19686 0.19686
diagonal:  Solving for rho, Initial residual = 0, Final residual = 0, No Iterations 0
diagonal:  Solving for rhoUx, Initial residual = 0, Final residual = 0, No Iterations 0
diagonal:  Solving for rhoE, Initial residual = 0, Final residual = 0, No Iterations 0

ExecutionTime = 82.2 s  ClockTime = 192 s  Iterations: 32.9983/219.993  Projected time to finish: 7.76352 min
Time = 0.000222541


Virtual Number Density of inserted particles: 22720.1
Used Temp: 900
Used Velocity: (2.12923e-14 0 0)
Delta T: 6.54566e-06
mostProbableSpeed: 731.058
PFA: 1(30.7177)
sCosTheta term: 1(2.91254e-17)    Particles inserted              = 31
    Collisions                      = 1021411
    Acceptance rate                 = 0.524998

Cloud name: dsmc
    Number of dsmc particles        = 88003
    Number of molecules             = 3.52012e+22
    Mass in system                  = 0.00163686
    Average linear momentum         = (7.98403e-25 -2.32683e-27 -7.41097e-26)
   |Average linear momentum|        = 8.01838e-25
    Average linear kinetic energy   = 1.58878e-20
    Average internal energy         = 1.05013e-20
    Average total energy            = 2.63891e-20
deltaT = 6.54566e-06
Mean and max Courant Numbers = 0.19686 0.19686
diagonal:  Solving for rho, Initial residual = 0, Final residual = 0, No Iterations 0
diagonal:  Solving for rhoUx, Initial residual = 0, Final residual = 0, No Iterations 0
diagonal:  Solving for rhoE, Initial residual = 0, Final residual = 0, No Iterations 0

ExecutionTime = 84.66 s  ClockTime = 194 s  Iterations: 33.9983/219.993  Projected time to finish: 7.71918 min
Time = 0.000229087


Virtual Number Density of inserted particles: 22720.1
Used Temp: 900
Used Velocity: (2.12923e-14 0 0)
Delta T: 6.54566e-06
mostProbableSpeed: 731.058
PFA: 1(30.3874)
sCosTheta term: 1(2.91254e-17)    Particles inserted              = 30
    Collisions                      = 1020003
    Acceptance rate                 = 0.524018

Cloud name: dsmc
    Number of dsmc particles        = 88003
    Number of molecules             = 3.52012e+22
    Mass in system                  = 0.00163686
    Average linear momentum         = (8.17285e-25 -1.74144e-27 -7.52147e-26)
   |Average linear momentum|        = 8.2074e-25
    Average linear kinetic energy   = 1.58315e-20
    Average internal energy         = 1.05621e-20
    Average total energy            = 2.63935e-20
deltaT = 6.54566e-06
Mean and max Courant Numbers = 0.19686 0.19686
diagonal:  Solving for rho, Initial residual = 0, Final residual = 0, No Iterations 0
diagonal:  Solving for rhoUx, Initial residual = 0, Final residual = 0, No Iterations 0
diagonal:  Solving for rhoE, Initial residual = 0, Final residual = 0, No Iterations 0

ExecutionTime = 87.19 s  ClockTime = 197 s  Iterations: 34.9983/219.993  Projected time to finish: 7.68119 min
Time = 0.000235632


Virtual Number Density of inserted particles: 22720.1
Used Temp: 900
Used Velocity: (-2.12923e-14 0 0)
Delta T: 6.54566e-06
mostProbableSpeed: 731.058
PFA: 1(31.0572)
sCosTheta term: 1(-2.91254e-17)    Particles inserted              = 31
    Collisions                      = 1019539
    Acceptance rate                 = 0.523215

Cloud name: dsmc
    Number of dsmc particles        = 88004
    Number of molecules             = 3.52016e+22
    Mass in system                  = 0.00163687
    Average linear momentum         = (8.39505e-25 4.36744e-28 -7.26981e-26)
   |Average linear momentum|        = 8.42647e-25
    Average linear kinetic energy   = 1.58906e-20
    Average internal energy         = 1.05019e-20
    Average total energy            = 2.63925e-20
deltaT = 6.54566e-06
Mean and max Courant Numbers = 0.19686 0.19686
diagonal:  Solving for rho, Initial residual = 0, Final residual = 0, No Iterations 0
diagonal:  Solving for rhoUx, Initial residual = 0, Final residual = 0, No Iterations 0
diagonal:  Solving for rhoE, Initial residual = 0, Final residual = 0, No Iterations 0

ExecutionTime = 89.58 s  ClockTime = 199 s  Iterations: 35.9983/219.993  Projected time to finish: 7.63104 min
Time = 0.000242178


Virtual Number Density of inserted particles: 22720.1
Used Temp: 900
Used Velocity: (2.36392e-30 0 0)
Delta T: 6.54566e-06
mostProbableSpeed: 731.058
PFA: 1(30.7269)
sCosTheta term: 1(3.23357e-33)    Particles inserted              = 31
    Collisions                      = 1020606
    Acceptance rate                 = 0.523819

Cloud name: dsmc
    Number of dsmc particles        = 88011
    Number of molecules             = 3.52044e+22
    Mass in system                  = 0.001637
    Average linear momentum         = (8.53645e-25 -1.32353e-27 -7.31679e-26)
   |Average linear momentum|        = 8.56776e-25
    Average linear kinetic energy   = 1.59077e-20
    Average internal energy         = 1.04865e-20
    Average total energy            = 2.63942e-20
deltaT = 6.54566e-06
Mean and max Courant Numbers = 0.19686 0.19686
diagonal:  Solving for rho, Initial residual = 0, Final residual = 0, No Iterations 0
diagonal:  Solving for rhoUx, Initial residual = 0, Final residual = 0, No Iterations 0
diagonal:  Solving for rhoE, Initial residual = 0, Final residual = 0, No Iterations 0

ExecutionTime = 92.04 s  ClockTime = 202 s  Iterations: 36.9983/219.993  Projected time to finish: 7.58722 min
Time = 0.000248724


Virtual Number Density of inserted particles: 22720.1
Used Temp: 900
Used Velocity: (-4.25846e-14 0 0)
Delta T: 6.54566e-06
mostProbableSpeed: 731.058
PFA: 1(30.3966)
sCosTheta term: 1(-5.82507e-17)    Particles inserted              = 31
    Collisions                      = 1017516
    Acceptance rate                 = 0.522288

Cloud name: dsmc
    Number of dsmc particles        = 88015
    Number of molecules             = 3.5206e+22
    Mass in system                  = 0.00163708
    Average linear momentum         = (8.73367e-25 -7.84211e-28 -7.43288e-26)
   |Average linear momentum|        = 8.76525e-25
    Average linear kinetic energy   = 1.58603e-20
    Average internal energy         = 1.05355e-20
    Average total energy            = 2.63957e-20
deltaT = 6.54566e-06
Mean and max Courant Numbers = 0.19686 0.19686
diagonal:  Solving for rho, Initial residual = 0, Final residual = 0, No Iterations 0
diagonal:  Solving for rhoUx, Initial residual = 0, Final residual = 0, No Iterations 0
diagonal:  Solving for rhoE, Initial residual = 0, Final residual = 0, No Iterations 0

ExecutionTime = 94.49 s  ClockTime = 204 s  Iterations: 37.9983/219.993  Projected time to finish: 7.54275 min
Time = 0.000255269


Virtual Number Density of inserted particles: 22720.1
Used Temp: 900
Used Velocity: (-8.51693e-14 0 0)
Delta T: 6.54566e-06
mostProbableSpeed: 731.058
PFA: 1(30.0663)
sCosTheta term: 1(-1.16501e-16)    Particles inserted              = 30
    Collisions                      = 1018875
    Acceptance rate                 = 0.522773

Cloud name: dsmc
    Number of dsmc particles        = 88020
    Number of molecules             = 3.5208e+22
    Mass in system                  = 0.00163717
    Average linear momentum         = (8.91626e-25 -3.02576e-27 -7.67542e-26)
   |Average linear momentum|        = 8.94929e-25
    Average linear kinetic energy   = 1.59509e-20
    Average internal energy         = 1.04482e-20
    Average total energy            = 2.63991e-20
deltaT = 6.54566e-06
Mean and max Courant Numbers = 0.19686 0.19686
diagonal:  Solving for rho, Initial residual = 0, Final residual = 0, No Iterations 0
diagonal:  Solving for rhoUx, Initial residual = 0, Final residual = 0, No Iterations 0
diagonal:  Solving for rhoE, Initial residual = 0, Final residual = 0, No Iterations 0

ExecutionTime = 97.06 s  ClockTime = 207 s  Iterations: 38.9983/219.993  Projected time to finish: 7.50775 min
Time = 0.000261815


Virtual Number Density of inserted particles: 22720.1
Used Temp: 900
Used Velocity: (-8.51693e-14 0 0)
Delta T: 6.54566e-06
mostProbableSpeed: 731.058
PFA: 1(30.7361)
sCosTheta term: 1(-1.16501e-16)    Particles inserted              = 30
    Collisions                      = 1018937
    Acceptance rate                 = 0.52266

Cloud name: dsmc
    Number of dsmc particles        = 88024
    Number of molecules             = 3.52096e+22
    Mass in system                  = 0.00163725
    Average linear momentum         = (9.07056e-25 -4.50021e-27 -7.67465e-26)
   |Average linear momentum|        = 9.10308e-25
    Average linear kinetic energy   = 1.59024e-20
    Average internal energy         = 1.04967e-20
    Average total energy            = 2.63992e-20
deltaT = 6.54566e-06
Mean and max Courant Numbers = 0.19686 0.19686
diagonal:  Solving for rho, Initial residual = 0, Final residual = 0, No Iterations 0
diagonal:  Solving for rhoUx, Initial residual = 0, Final residual = 0, No Iterations 0
diagonal:  Solving for rhoE, Initial residual = 0, Final residual = 0, No Iterations 0

ExecutionTime = 99.56 s  ClockTime = 210 s  Iterations: 39.9983/219.993  Projected time to finish: 7.46711 min
Time = 0.000268361


Virtual Number Density of inserted particles: 22720.1
Used Temp: 900
Used Velocity: (-1.06462e-13 0 0)
Delta T: 6.54566e-06
mostProbableSpeed: 731.058
PFA: 1(31.4058)
sCosTheta term: 1(-1.45627e-16)    Particles inserted              = 32
    Collisions                      = 1018359
    Acceptance rate                 = 0.52274

Cloud name: dsmc
    Number of dsmc particles        = 88020
    Number of molecules             = 3.5208e+22
    Mass in system                  = 0.00163717
    Average linear momentum         = (9.30805e-25 -5.4903e-27 -7.41044e-26)
   |Average linear momentum|        = 9.33766e-25
    Average linear kinetic energy   = 1.58846e-20
    Average internal energy         = 1.05121e-20
    Average total energy            = 2.63967e-20
deltaT = 6.54566e-06
Mean and max Courant Numbers = 0.19686 0.19686
diagonal:  Solving for rho, Initial residual = 0, Final residual = 0, No Iterations 0
diagonal:  Solving for rhoUx, Initial residual = 0, Final residual = 0, No Iterations 0
diagonal:  Solving for rhoE, Initial residual = 0, Final residual = 0, No Iterations 0

ExecutionTime = 102.07 s  ClockTime = 212 s  Iterations: 40.9983/219.993  Projected time to finish: 7.42714 min
Time = 0.000274906


Virtual Number Density of inserted particles: 22720.1
Used Temp: 900
Used Velocity: (-4.25846e-14 0 0)
Delta T: 6.54566e-06
mostProbableSpeed: 731.058
PFA: 1(30.0755)
sCosTheta term: 1(-5.82507e-17)    Particles inserted              = 30
    Collisions                      = 1017116
    Acceptance rate                 = 0.521644

Cloud name: dsmc
    Number of dsmc particles        = 88028
    Number of molecules             = 3.52112e+22
    Mass in system                  = 0.00163732
    Average linear momentum         = (9.42867e-25 -4.342e-27 -7.15799e-26)
   |Average linear momentum|        = 9.4559e-25
    Average linear kinetic energy   = 1.58888e-20
    Average internal energy         = 1.05096e-20
    Average total energy            = 2.63984e-20
deltaT = 6.54566e-06
Mean and max Courant Numbers = 0.19686 0.19686
diagonal:  Solving for rho, Initial residual = 0, Final residual = 0, No Iterations 0
diagonal:  Solving for rhoUx, Initial residual = 0, Final residual = 0, No Iterations 0
diagonal:  Solving for rhoE, Initial residual = 0, Final residual = 0, No Iterations 0

ExecutionTime = 105.04 s  ClockTime = 215 s  Iterations: 41.9983/219.993  Projected time to finish: 7.41958 min
Time = 0.000281452


Virtual Number Density of inserted particles: 22720.1
Used Temp: 900
Used Velocity: (-2.12923e-14 0 0)
Delta T: 6.54566e-06
mostProbableSpeed: 731.058
PFA: 1(30.7452)
sCosTheta term: 1(-2.91254e-17)    Particles inserted              = 30
    Collisions                      = 1016850
    Acceptance rate                 = 0.521742

Cloud name: dsmc
    Number of dsmc particles        = 88028
    Number of molecules             = 3.52112e+22
    Mass in system                  = 0.00163732
    Average linear momentum         = (9.6485e-25 -3.39814e-27 -6.83191e-26)
   |Average linear momentum|        = 9.67271e-25
    Average linear kinetic energy   = 1.58738e-20
    Average internal energy         = 1.05253e-20
    Average total energy            = 2.63991e-20
deltaT = 6.54566e-06
Mean and max Courant Numbers = 0.19686 0.19686
diagonal:  Solving for rho, Initial residual = 0, Final residual = 0, No Iterations 0
diagonal:  Solving for rhoUx, Initial residual = 0, Final residual = 0, No Iterations 0
diagonal:  Solving for rhoE, Initial residual = 0, Final residual = 0, No Iterations 0

ExecutionTime = 108.13 s  ClockTime = 218 s  Iterations: 42.9983/219.993  Projected time to finish: 7.4183 min
Time = 0.000287998


Virtual Number Density of inserted particles: 22720.1
Used Temp: 900
Used Velocity: (-2.12923e-14 0 0)
Delta T: 6.54566e-06
mostProbableSpeed: 731.058
PFA: 1(31.415)
sCosTheta term: 1(-2.91254e-17)    Particles inserted              = 31
    Collisions                      = 1014531
    Acceptance rate                 = 0.520443

Cloud name: dsmc
    Number of dsmc particles        = 88016
    Number of molecules             = 3.52064e+22
    Mass in system                  = 0.0016371
    Average linear momentum         = (9.88321e-25 -1.70457e-27 -6.82646e-26)
   |Average linear momentum|        = 9.90677e-25
    Average linear kinetic energy   = 1.58649e-20
    Average internal energy         = 1.05321e-20
    Average total energy            = 2.6397e-20
deltaT = 6.54566e-06
Mean and max Courant Numbers = 0.19686 0.19686
diagonal:  Solving for rho, Initial residual = 0, Final residual = 0, No Iterations 0
diagonal:  Solving for rhoUx, Initial residual = 0, Final residual = 0, No Iterations 0
diagonal:  Solving for rhoE, Initial residual = 0, Final residual = 0, No Iterations 0

ExecutionTime = 110.82 s  ClockTime = 221 s  Iterations: 43.9983/219.993  Projected time to finish: 7.38807 min
Time = 0.000294543


Virtual Number Density of inserted particles: 22720.1
Used Temp: 900
Used Velocity: (4.25846e-14 0 0)
Delta T: 6.54566e-06
mostProbableSpeed: 731.058
PFA: 1(31.0847)
sCosTheta term: 1(5.82507e-17)    Particles inserted              = 31
    Collisions                      = 1015572
    Acceptance rate                 = 0.520829

Cloud name: dsmc
    Number of dsmc particles        = 88012
    Number of molecules             = 3.52048e+22
    Mass in system                  = 0.00163702
    Average linear momentum         = (1.00909e-24 -6.23657e-27 -7.21108e-26)
   |Average linear momentum|        = 1.01168e-24
    Average linear kinetic energy   = 1.5931e-20
    Average internal energy         = 1.04658e-20
    Average total energy            = 2.63969e-20
deltaT = 6.54566e-06
Mean and max Courant Numbers = 0.19686 0.19686
diagonal:  Solving for rho, Initial residual = 0, Final residual = 0, No Iterations 0
diagonal:  Solving for rhoUx, Initial residual = 0, Final residual = 0, No Iterations 0
diagonal:  Solving for rhoE, Initial residual = 0, Final residual = 0, No Iterations 0

ExecutionTime = 113.48 s  ClockTime = 224 s  Iterations: 44.9983/219.993  Projected time to finish: 7.35525 min
Time = 0.000301089


Virtual Number Density of inserted particles: 22720.1
Used Temp: 900
Used Velocity: (6.3877e-14 0 0)
Delta T: 6.54566e-06
mostProbableSpeed: 731.058
PFA: 1(30.7544)
sCosTheta term: 1(8.73761e-17)    Particles inserted              = 31
    Collisions                      = 1014662
    Acceptance rate                 = 0.520283

Cloud name: dsmc
    Number of dsmc particles        = 88015
    Number of molecules             = 3.5206e+22
    Mass in system                  = 0.00163708
    Average linear momentum         = (1.02792e-24 -5.96224e-27 -7.47247e-26)
   |Average linear momentum|        = 1.03065e-24
    Average linear kinetic energy   = 1.59028e-20
    Average internal energy         = 1.04908e-20
    Average total energy            = 2.63936e-20
deltaT = 6.54566e-06
Mean and max Courant Numbers = 0.19686 0.19686
diagonal:  Solving for rho, Initial residual = 0, Final residual = 0, No Iterations 0
diagonal:  Solving for rhoUx, Initial residual = 0, Final residual = 0, No Iterations 0
diagonal:  Solving for rhoE, Initial residual = 0, Final residual = 0, No Iterations 0

ExecutionTime = 116.27 s  ClockTime = 227 s  Iterations: 45.9983/219.993  Projected time to finish: 7.33012 min
Time = 0.000307635


Virtual Number Density of inserted particles: 22720.1
Used Temp: 900
Used Velocity: (6.3877e-14 0 0)
Delta T: 6.54566e-06
mostProbableSpeed: 731.058
PFA: 1(30.4242)
sCosTheta term: 1(8.73761e-17)    Particles inserted              = 31
    Collisions                      = 1016210
    Acceptance rate                 = 0.521358

Cloud name: dsmc
    Number of dsmc particles        = 88011
    Number of molecules             = 3.52044e+22
    Mass in system                  = 0.001637
    Average linear momentum         = (1.04881e-24 -5.6507e-27 -7.91683e-26)
   |Average linear momentum|        = 1.05181e-24
    Average linear kinetic energy   = 1.59237e-20
    Average internal energy         = 1.04701e-20
    Average total energy            = 2.63938e-20
deltaT = 6.54566e-06
Mean and max Courant Numbers = 0.19686 0.19686
diagonal:  Solving for rho, Initial residual = 0, Final residual = 0, No Iterations 0
diagonal:  Solving for rhoUx, Initial residual = 0, Final residual = 0, No Iterations 0
diagonal:  Solving for rhoE, Initial residual = 0, Final residual = 0, No Iterations 0

ExecutionTime = 118.71 s  ClockTime = 229 s  Iterations: 46.9983/219.993  Projected time to finish: 7.28261 min
Time = 0.00031418


Virtual Number Density of inserted particles: 22720.1
Used Temp: 900
Used Velocity: (1.06462e-13 0 0)
Delta T: 6.54566e-06
mostProbableSpeed: 731.058
PFA: 1(30.0939)
sCosTheta term: 1(1.45627e-16)    Particles inserted              = 30
    Collisions                      = 1013572
    Acceptance rate                 = 0.519802

Cloud name: dsmc
    Number of dsmc particles        = 88015
    Number of molecules             = 3.5206e+22
    Mass in system                  = 0.00163708
    Average linear momentum         = (1.06865e-24 -3.74411e-27 -7.97921e-26)
   |Average linear momentum|        = 1.07163e-24
    Average linear kinetic energy   = 1.59175e-20
    Average internal energy         = 1.0481e-20
    Average total energy            = 2.63985e-20
deltaT = 6.54566e-06
Mean and max Courant Numbers = 0.19686 0.19686
diagonal:  Solving for rho, Initial residual = 0, Final residual = 0, No Iterations 0
diagonal:  Solving for rhoUx, Initial residual = 0, Final residual = 0, No Iterations 0
diagonal:  Solving for rhoE, Initial residual = 0, Final residual = 0, No Iterations 0

ExecutionTime = 121.18 s  ClockTime = 232 s  Iterations: 47.9983/219.993  Projected time to finish: 7.23718 min
Time = 0.000320726


Virtual Number Density of inserted particles: 22720.1
Used Temp: 900
Used Velocity: (8.51693e-14 0 0)
Delta T: 6.54566e-06
mostProbableSpeed: 731.058
PFA: 1(30.7636)
sCosTheta term: 1(1.16501e-16)    Particles inserted              = 31
    Collisions                      = 1015367
    Acceptance rate                 = 0.520586

Cloud name: dsmc
    Number of dsmc particles        = 88022
    Number of molecules             = 3.52088e+22
    Mass in system                  = 0.00163721
    Average linear momentum         = (1.08669e-24 -3.99741e-27 -7.93526e-26)
   |Average linear momentum|        = 1.08959e-24
    Average linear kinetic energy   = 1.59069e-20
    Average internal energy         = 1.04929e-20
    Average total energy            = 2.63998e-20
deltaT = 6.54566e-06
Mean and max Courant Numbers = 0.19686 0.19686
diagonal:  Solving for rho, Initial residual = 0, Final residual = 0, No Iterations 0
diagonal:  Solving for rhoUx, Initial residual = 0, Final residual = 0, No Iterations 0
diagonal:  Solving for rhoE, Initial residual = 0, Final residual = 0, No Iterations 0

ExecutionTime = 123.6 s  ClockTime = 234 s  Iterations: 48.9983/219.993  Projected time to finish: 7.18902 min
Time = 0.000327272


Virtual Number Density of inserted particles: 22720.1
Used Temp: 900
Used Velocity: (8.51693e-14 0 0)
Delta T: 6.54566e-06
mostProbableSpeed: 731.058
PFA: 1(30.4333)
sCosTheta term: 1(1.16501e-16)    Particles inserted              = 31
    Collisions                      = 1014266
    Acceptance rate                 = 0.520021

Cloud name: dsmc
    Number of dsmc particles        = 88029
    Number of molecules             = 3.52116e+22
    Mass in system                  = 0.00163734
    Average linear momentum         = (1.10499e-24 -5.00493e-27 -7.80796e-26)
   |Average linear momentum|        = 1.10775e-24
    Average linear kinetic energy   = 1.59096e-20
    Average internal energy         = 1.04904e-20
    Average total energy            = 2.64e-20
deltaT = 6.54566e-06
Mean and max Courant Numbers = 0.19686 0.19686
diagonal:  Solving for rho, Initial residual = 0, Final residual = 0, No Iterations 0
diagonal:  Solving for rhoUx, Initial residual = 0, Final residual = 0, No Iterations 0
diagonal:  Solving for rhoE, Initial residual = 0, Final residual = 0, No Iterations 0

ExecutionTime = 126.1 s  ClockTime = 237 s  Iterations: 49.9983/219.993  Projected time to finish: 7.1457 min
Time = 0.000333817


Virtual Number Density of inserted particles: 22720.1
Used Temp: 900
Used Velocity: (6.3877e-14 0 0)
Delta T: 6.54566e-06
mostProbableSpeed: 731.058
PFA: 1(30.1031)
sCosTheta term: 1(8.73761e-17)    Particles inserted              = 30
    Collisions                      = 1013871
    Acceptance rate                 = 0.520052

Cloud name: dsmc
    Number of dsmc particles        = 88025
    Number of molecules             = 3.521e+22
    Mass in system                  = 0.00163727
    Average linear momentum         = (1.12688e-24 -4.93458e-27 -7.8311e-26)
   |Average linear momentum|        = 1.12961e-24
    Average linear kinetic energy   = 1.58836e-20
    Average internal energy         = 1.05152e-20
    Average total energy            = 2.63988e-20
deltaT = 6.54566e-06
Mean and max Courant Numbers = 0.19686 0.19686
diagonal:  Solving for rho, Initial residual = 0, Final residual = 0, No Iterations 0
diagonal:  Solving for rhoUx, Initial residual = 0, Final residual = 0, No Iterations 0
diagonal:  Solving for rhoE, Initial residual = 0, Final residual = 0, No Iterations 0

ExecutionTime = 128.59 s  ClockTime = 239 s  Iterations: 50.9983/219.993  Projected time to finish: 7.10189 min
Time = 0.000340363


Virtual Number Density of inserted particles: 22720.1
Used Temp: 900
Used Velocity: (4.25846e-14 0 0)
Delta T: 6.54566e-06
mostProbableSpeed: 731.058
PFA: 1(30.7728)
sCosTheta term: 1(5.82507e-17)    Particles inserted              = 31
    Collisions                      = 1013934
    Acceptance rate                 = 0.519467

Cloud name: dsmc
    Number of dsmc particles        = 88031
    Number of molecules             = 3.52124e+22
    Mass in system                  = 0.00163738
    Average linear momentum         = (1.14306e-24 -5.23894e-27 -7.85086e-26)
   |Average linear momentum|        = 1.14577e-24
    Average linear kinetic energy   = 1.58972e-20
    Average internal energy         = 1.05019e-20
    Average total energy            = 2.63992e-20
deltaT = 6.54566e-06
Mean and max Courant Numbers = 0.19686 0.19686
diagonal:  Solving for rho, Initial residual = 0, Final residual = 0, No Iterations 0
diagonal:  Solving for rhoUx, Initial residual = 0, Final residual = 0, No Iterations 0
diagonal:  Solving for rhoE, Initial residual = 0, Final residual = 0, No Iterations 0

ExecutionTime = 131.09 s  ClockTime = 242 s  Iterations: 51.9983/219.993  Projected time to finish: 7.05871 min
Time = 0.000346909


Virtual Number Density of inserted particles: 22720.1
Used Temp: 900
Used Velocity: (2.12923e-14 0 0)
Delta T: 6.54566e-06
mostProbableSpeed: 731.058
PFA: 1(30.4425)
sCosTheta term: 1(2.91254e-17)    Particles inserted              = 31
    Collisions                      = 1014679
    Acceptance rate                 = 0.519752

Cloud name: dsmc
    Number of dsmc particles        = 88036
    Number of molecules             = 3.52144e+22
    Mass in system                  = 0.00163747
    Average linear momentum         = (1.15941e-24 -4.44472e-27 -7.73354e-26)
   |Average linear momentum|        = 1.162e-24
    Average linear kinetic energy   = 1.594e-20
    Average internal energy         = 1.04614e-20
    Average total energy            = 2.64014e-20
deltaT = 6.54566e-06
Mean and max Courant Numbers = 0.19686 0.19686
diagonal:  Solving for rho, Initial residual = 0, Final residual = 0, No Iterations 0
diagonal:  Solving for rhoUx, Initial residual = 0, Final residual = 0, No Iterations 0
diagonal:  Solving for rhoE, Initial residual = 0, Final residual = 0, No Iterations 0

ExecutionTime = 133.49 s  ClockTime = 244 s  Iterations: 52.9983/219.993  Projected time to finish: 7.01033 min
Time = 0.000353454


Virtual Number Density of inserted particles: 22720.1
Used Temp: 900
Used Velocity: (4.25846e-14 0 0)
Delta T: 6.54566e-06
mostProbableSpeed: 731.058
PFA: 1(30.1122)
sCosTheta term: 1(5.82507e-17)    Particles inserted              = 30
    Collisions                      = 1012555
    Acceptance rate                 = 0.518868

Cloud name: dsmc
    Number of dsmc particles        = 88026
    Number of molecules             = 3.52104e+22
    Mass in system                  = 0.00163728
    Average linear momentum         = (1.18499e-24 -2.64735e-27 -7.62259e-26)
   |Average linear momentum|        = 1.18745e-24
    Average linear kinetic energy   = 1.58642e-20
    Average internal energy         = 1.05351e-20
    Average total energy            = 2.63993e-20
deltaT = 6.54566e-06
Mean and max Courant Numbers = 0.19686 0.19686
diagonal:  Solving for rho, Initial residual = 0, Final residual = 0, No Iterations 0
diagonal:  Solving for rhoUx, Initial residual = 0, Final residual = 0, No Iterations 0
diagonal:  Solving for rhoE, Initial residual = 0, Final residual = 0, No Iterations 0

ExecutionTime = 135.93 s  ClockTime = 247 s  Iterations: 53.9983/219.993  Projected time to finish: 6.96432 min
Time = 0.00036


Virtual Number Density of inserted particles: 22720.1
Used Temp: 900
Used Velocity: (1.06462e-13 0 0)
Delta T: 6.54566e-06
mostProbableSpeed: 731.058
PFA: 1(30.782)
sCosTheta term: 1(1.45627e-16)    Particles inserted              = 30
    Collisions                      = 1013099
    Acceptance rate                 = 0.519212

Cloud name: dsmc
    Number of dsmc particles        = 88024
    Number of molecules             = 3.52096e+22
    Mass in system                  = 0.00163725
    Average linear momentum         = (1.20643e-24 -6.4897e-27 -7.87178e-26)
   |Average linear momentum|        = 1.20901e-24
    Average linear kinetic energy   = 1.58826e-20
    Average internal energy         = 1.05108e-20
    Average total energy            = 2.63934e-20
deltaT = 6.54545e-06
Mean and max Courant Numbers = 0.196854 0.196854
diagonal:  Solving for rho, Initial residual = 0, Final residual = 0, No Iterations 0
diagonal:  Solving for rhoUx, Initial residual = 0, Final residual = 0, No Iterations 0
diagonal:  Solving for rhoE, Initial residual = 0, Final residual = 0, No Iterations 0

ExecutionTime = 139.58 s  ClockTime = 251 s  Iterations: 55/220  Projected time to finish: 6.979 min
Time = 0.000366545


Virtual Number Density of inserted particles: 22720.1
Used Temp: 900
Used Velocity: (1.49046e-13 0 0)
Delta T: 6.54545e-06
mostProbableSpeed: 731.058
PFA: 1(31.4507)
sCosTheta term: 1(2.03878e-16)    Particles inserted              = 31
    Collisions                      = 1011965
    Acceptance rate                 = 0.518409

Cloud name: dsmc
    Number of dsmc particles        = 88034
    Number of molecules             = 3.52136e+22
    Mass in system                  = 0.00163743
    Average linear momentum         = (1.22502e-24 -8.08731e-27 -8.10927e-26)
   |Average linear momentum|        = 1.22773e-24
    Average linear kinetic energy   = 1.59219e-20
    Average internal energy         = 1.04743e-20
    Average total energy            = 2.63961e-20
deltaT = 6.54545e-06
Mean and max Courant Numbers = 0.196854 0.196854
diagonal:  Solving for rho, Initial residual = 0, Final residual = 0, No Iterations 0
diagonal:  Solving for rhoUx, Initial residual = 0, Final residual = 0, No Iterations 0
diagonal:  Solving for rhoE, Initial residual = 0, Final residual = 0, No Iterations 0

ExecutionTime = 142.15 s  ClockTime = 253 s  Iterations: 56/220  Projected time to finish: 6.93827 min
Time = 0.000373091


Virtual Number Density of inserted particles: 22720.1
Used Temp: 900
Used Velocity: (4.2588e-14 0 0)
Delta T: 6.54545e-06
mostProbableSpeed: 731.058
PFA: 1(31.1195)
sCosTheta term: 1(5.82553e-17)    Particles inserted              = 31
    Collisions                      = 1011627
    Acceptance rate                 = 0.517946

Cloud name: dsmc
    Number of dsmc particles        = 88036
    Number of molecules             = 3.52144e+22
    Mass in system                  = 0.00163747
    Average linear momentum         = (1.24471e-24 -9.82521e-27 -8.20863e-26)
   |Average linear momentum|        = 1.24745e-24
    Average linear kinetic energy   = 1.58919e-20
    Average internal energy         = 1.05053e-20
    Average total energy            = 2.63971e-20
deltaT = 6.54545e-06
Mean and max Courant Numbers = 0.196854 0.196854
diagonal:  Solving for rho, Initial residual = 0, Final residual = 0, No Iterations 0
diagonal:  Solving for rhoUx, Initial residual = 0, Final residual = 0, No Iterations 0
diagonal:  Solving for rhoE, Initial residual = 0, Final residual = 0, No Iterations 0

ExecutionTime = 144.7 s  ClockTime = 256 s  Iterations: 57/220  Projected time to finish: 6.89652 min
Time = 0.000379636


Virtual Number Density of inserted particles: 22720.1
Used Temp: 900
Used Velocity: (-4.25786e-14 0 0)
Delta T: 6.54545e-06
mostProbableSpeed: 731.058
PFA: 1(30.7883)
sCosTheta term: 1(-5.82425e-17)    Particles inserted              = 31
    Collisions                      = 1011172
    Acceptance rate                 = 0.517541

Cloud name: dsmc
    Number of dsmc particles        = 88032
    Number of molecules             = 3.52128e+22
    Mass in system                  = 0.0016374
    Average linear momentum         = (1.26563e-24 -9.28857e-27 -8.25839e-26)
   |Average linear momentum|        = 1.26836e-24
    Average linear kinetic energy   = 1.59387e-20
    Average internal energy         = 1.04571e-20
    Average total energy            = 2.63958e-20
deltaT = 6.54545e-06
Mean and max Courant Numbers = 0.196854 0.196854
diagonal:  Solving for rho, Initial residual = 0, Final residual = 0, No Iterations 0
diagonal:  Solving for rhoUx, Initial residual = 0, Final residual = 0, No Iterations 0
diagonal:  Solving for rhoE, Initial residual = 0, Final residual = 0, No Iterations 0

ExecutionTime = 147.22 s  ClockTime = 258 s  Iterations: 58/220  Projected time to finish: 6.85334 min
Time = 0.000386182


Virtual Number Density of inserted particles: 22720.1
Used Temp: 900
Used Velocity: (-1.06454e-13 0 0)
Delta T: 6.54545e-06
mostProbableSpeed: 731.058
PFA: 1(30.457)
sCosTheta term: 1(-1.45616e-16)    Particles inserted              = 30
    Collisions                      = 1010203
    Acceptance rate                 = 0.517149

Cloud name: dsmc
    Number of dsmc particles        = 88029
    Number of molecules             = 3.52116e+22
    Mass in system                  = 0.00163734
    Average linear momentum         = (1.28745e-24 -7.43969e-27 -8.10705e-26)
   |Average linear momentum|        = 1.29002e-24
    Average linear kinetic energy   = 1.59224e-20
    Average internal energy         = 1.04723e-20
    Average total energy            = 2.63947e-20
deltaT = 6.54545e-06
Mean and max Courant Numbers = 0.196854 0.196854
diagonal:  Solving for rho, Initial residual = 0, Final residual = 0, No Iterations 0
diagonal:  Solving for rhoUx, Initial residual = 0, Final residual = 0, No Iterations 0
diagonal:  Solving for rhoE, Initial residual = 0, Final residual = 0, No Iterations 0

ExecutionTime = 149.69 s  ClockTime = 261 s  Iterations: 59/220  Projected time to finish: 6.80794 min
Time = 0.000392727


Virtual Number Density of inserted particles: 22720.1
Used Temp: 900
Used Velocity: (-1.9162e-13 0 0)
Delta T: 6.54545e-06
mostProbableSpeed: 731.058
PFA: 1(31.1258)
sCosTheta term: 1(-2.62114e-16)    Particles inserted              = 31
    Collisions                      = 1010174
    Acceptance rate                 = 0.517415

Cloud name: dsmc
    Number of dsmc particles        = 88027
    Number of molecules             = 3.52108e+22
    Mass in system                  = 0.0016373
    Average linear momentum         = (1.31019e-24 -2.85378e-27 -7.88376e-26)
   |Average linear momentum|        = 1.31256e-24
    Average linear kinetic energy   = 1.59485e-20
    Average internal energy         = 1.04477e-20
    Average total energy            = 2.63963e-20
deltaT = 6.54545e-06
Mean and max Courant Numbers = 0.196854 0.196854
diagonal:  Solving for rho, Initial residual = 0, Final residual = 0, No Iterations 0
diagonal:  Solving for rhoUx, Initial residual = 0, Final residual = 0, No Iterations 0
diagonal:  Solving for rhoE, Initial residual = 0, Final residual = 0, No Iterations 0

ExecutionTime = 152.25 s  ClockTime = 264 s  Iterations: 60/220  Projected time to finish: 6.76667 min
Time = 0.000399273


Virtual Number Density of inserted particles: 22720.1
Used Temp: 900
Used Velocity: (-2.34203e-13 0 0)
Delta T: 6.54545e-06
mostProbableSpeed: 731.058
PFA: 1(30.7946)
sCosTheta term: 1(-3.20363e-16)    Particles inserted              = 30
    Collisions                      = 1010522
    Acceptance rate                 = 0.51756

Cloud name: dsmc
    Number of dsmc particles        = 88030
    Number of molecules             = 3.5212e+22
    Mass in system                  = 0.00163736
    Average linear momentum         = (1.32479e-24 -1.4628e-27 -7.74203e-26)
   |Average linear momentum|        = 1.32705e-24
    Average linear kinetic energy   = 1.59132e-20
    Average internal energy         = 1.04818e-20
    Average total energy            = 2.6395e-20
deltaT = 6.54545e-06
[...]
diagonal:  Solving for rho, Initial residual = 0, Final residual = 0, No Iterations 0
diagonal:  Solving for rhoUx, Initial residual = 0, Final residual = 0, No Iterations 0
diagonal:  Solving for rhoE, Initial residual = 0, Final residual = 0, No Iterations 0

ExecutionTime = 505.54 s  ClockTime = 35979 s  Iterations: 204/220  Projected time to finish: 0.660837 min
Time = 0.00134182


Virtual Number Density of inserted particles: 22720.1
Used Temp: 900
Used Velocity: (-4.89703e-13 0 0)
Delta T: 6.54545e-06
mostProbableSpeed: 731.058
PFA: 1(31.0965)
sCosTheta term: 1(-6.69856e-16)    Particles inserted              = 31
    Collisions                      = 965899
    Acceptance rate                 = 0.506537

Cloud name: dsmc
    Number of dsmc particles        = 88223
    Number of molecules             = 3.52892e+22
    Mass in system                  = 0.00164095
    Average linear momentum         = (4.07291e-24 2.11355e-26 -6.67636e-26)
   |Average linear momentum|        = 4.07351e-24
    Average linear kinetic energy   = 1.61125e-20
    Average internal energy         = 1.03094e-20
    Average total energy            = 2.64219e-20
deltaT = 6.54545e-06
Mean and max Courant Numbers = 0.196854 0.196854
diagonal:  Solving for rho, Initial residual = 0, Final residual = 0, No Iterations 0
diagonal:  Solving for rhoUx, Initial residual = 0, Final residual = 0, No Iterations 0
diagonal:  Solving for rhoE, Initial residual = 0, Final residual = 0, No Iterations 0

ExecutionTime = 506.96 s  ClockTime = 35981 s  Iterations: 205/220  Projected time to finish: 0.618244 min
Time = 0.00134836


Virtual Number Density of inserted particles: 22720.1
Used Temp: 900
Used Velocity: (-4.04537e-13 0 0)
Delta T: 6.54545e-06
mostProbableSpeed: 731.058
PFA: 1(30.7652)
sCosTheta term: 1(-5.53358e-16)    Particles inserted              = 30
    Collisions                      = 964861
    Acceptance rate                 = 0.506394

Cloud name: dsmc
    Number of dsmc particles        = 88212
    Number of molecules             = 3.52848e+22
    Mass in system                  = 0.00164074
    Average linear momentum         = (4.0969e-24 2.23375e-26 -6.84535e-26)
   |Average linear momentum|        = 4.09753e-24
    Average linear kinetic energy   = 1.61269e-20
    Average internal energy         = 1.0295e-20
    Average total energy            = 2.64219e-20
deltaT = 6.54545e-06
Mean and max Courant Numbers = 0.196854 0.196854
diagonal:  Solving for rho, Initial residual = 0, Final residual = 0, No Iterations 0
diagonal:  Solving for rhoUx, Initial residual = 0, Final residual = 0, No Iterations 0
diagonal:  Solving for rhoE, Initial residual = 0, Final residual = 0, No Iterations 0

ExecutionTime = 508.38 s  ClockTime = 35982 s  Iterations: 206/220  Projected time to finish: 0.575835 min
Time = 0.00135491


Virtual Number Density of inserted particles: 22720.1
Used Temp: 900
Used Velocity: (-3.1937e-13 0 0)
Delta T: 6.54545e-06
mostProbableSpeed: 731.058
PFA: 1(31.434)
sCosTheta term: 1(-4.3686e-16)    Particles inserted              = 32
    Collisions                      = 965185
    Acceptance rate                 = 0.506657

Cloud name: dsmc
    Number of dsmc particles        = 88210
    Number of molecules             = 3.5284e+22
    Mass in system                  = 0.00164071
    Average linear momentum         = (4.11715e-24 2.47425e-26 -6.89404e-26)
   |Average linear momentum|        = 4.1178e-24
    Average linear kinetic energy   = 1.6154e-20
    Average internal energy         = 1.02678e-20
    Average total energy            = 2.64218e-20
deltaT = 6.54545e-06
Mean and max Courant Numbers = 0.196854 0.196854
diagonal:  Solving for rho, Initial residual = 0, Final residual = 0, No Iterations 0
diagonal:  Solving for rhoUx, Initial residual = 0, Final residual = 0, No Iterations 0
diagonal:  Solving for rhoE, Initial residual = 0, Final residual = 0, No Iterations 0

ExecutionTime = 509.94 s  ClockTime = 35984 s  Iterations: 207/220  Projected time to finish: 0.533754 min
Time = 0.00136145


Virtual Number Density of inserted particles: 22720.1
Used Temp: 900
Used Velocity: (-3.40662e-13 0 0)
Delta T: 6.54545e-06
mostProbableSpeed: 731.058
PFA: 1(30.1027)
sCosTheta term: 1(-4.65985e-16)    Particles inserted              = 30
    Collisions                      = 964625
    Acceptance rate                 = 0.506277

Cloud name: dsmc
    Number of dsmc particles        = 88213
    Number of molecules             = 3.52852e+22
    Mass in system                  = 0.00164076
    Average linear momentum         = (4.13151e-24 2.24695e-26 -7.23554e-26)
   |Average linear momentum|        = 4.1322e-24
    Average linear kinetic energy   = 1.6084e-20
    Average internal energy         = 1.03328e-20
    Average total energy            = 2.64168e-20
deltaT = 6.54545e-06
Mean and max Courant Numbers = 0.196854 0.196854
diagonal:  Solving for rho, Initial residual = 0, Final residual = 0, No Iterations 0
diagonal:  Solving for rhoUx, Initial residual = 0, Final residual = 0, No Iterations 0
diagonal:  Solving for rhoE, Initial residual = 0, Final residual = 0, No Iterations 0

ExecutionTime = 511.33 s  ClockTime = 35985 s  Iterations: 208/220  Projected time to finish: 0.491663 min
Time = 0.001368


Virtual Number Density of inserted particles: 22720.1
Used Temp: 900
Used Velocity: (-3.1937e-13 0 0)
Delta T: 6.54545e-06
mostProbableSpeed: 731.058
PFA: 1(30.7715)
sCosTheta term: 1(-4.3686e-16)    Particles inserted              = 31
    Collisions                      = 963079
    Acceptance rate                 = 0.505914

Cloud name: dsmc
    Number of dsmc particles        = 88218
    Number of molecules             = 3.52872e+22
    Mass in system                  = 0.00164085
    Average linear momentum         = (4.14774e-24 2.13981e-26 -7.37063e-26)
   |Average linear momentum|        = 4.14845e-24
    Average linear kinetic energy   = 1.61134e-20
    Average internal energy         = 1.03046e-20
    Average total energy            = 2.6418e-20
deltaT = 6.54545e-06
Mean and max Courant Numbers = 0.196854 0.196854
diagonal:  Solving for rho, Initial residual = 0, Final residual = 0, No Iterations 0
diagonal:  Solving for rhoUx, Initial residual = 0, Final residual = 0, No Iterations 0
diagonal:  Solving for rhoE, Initial residual = 0, Final residual = 0, No Iterations 0

ExecutionTime = 512.64 s  ClockTime = 35986 s  Iterations: 209/220  Projected time to finish: 0.449684 min
Time = 0.00137455


Virtual Number Density of inserted particles: 22720.1
Used Temp: 900
Used Velocity: (-2.55495e-13 0 0)
Delta T: 6.54545e-06
mostProbableSpeed: 731.058
PFA: 1(30.4403)
sCosTheta term: 1(-3.49487e-16)    Particles inserted              = 31
    Collisions                      = 962687
    Acceptance rate                 = 0.505966

Cloud name: dsmc
    Number of dsmc particles        = 88214
    Number of molecules             = 3.52856e+22
    Mass in system                  = 0.00164078
    Average linear momentum         = (4.17134e-24 2.112e-26 -7.37477e-26)
   |Average linear momentum|        = 4.17204e-24
    Average linear kinetic energy   = 1.60519e-20
    Average internal energy         = 1.03655e-20
    Average total energy            = 2.64174e-20
deltaT = 6.54545e-06
Mean and max Courant Numbers = 0.196854 0.196854
diagonal:  Solving for rho, Initial residual = 0, Final residual = 0, No Iterations 0
diagonal:  Solving for rhoUx, Initial residual = 0, Final residual = 0, No Iterations 0
diagonal:  Solving for rhoE, Initial residual = 0, Final residual = 0, No Iterations 0

ExecutionTime = 513.99 s  ClockTime = 35988 s  Iterations: 210/220  Projected time to finish: 0.407929 min
Time = 0.00138109


Virtual Number Density of inserted particles: 22720.1
Used Temp: 900
Used Velocity: (-2.34203e-13 0 0)
Delta T: 6.54545e-06
mostProbableSpeed: 731.058
PFA: 1(30.109)
sCosTheta term: 1(-3.20363e-16)    Particles inserted              = 30
    Collisions                      = 962548
    Acceptance rate                 = 0.505897

Cloud name: dsmc
    Number of dsmc particles        = 88215
    Number of molecules             = 3.5286e+22
    Mass in system                  = 0.0016408
    Average linear momentum         = (4.19167e-24 2.34173e-26 -7.10829e-26)
   |Average linear momentum|        = 4.19234e-24
    Average linear kinetic energy   = 1.61251e-20
    Average internal energy         = 1.02924e-20
    Average total energy            = 2.64175e-20
deltaT = 6.54545e-06
Mean and max Courant Numbers = 0.196854 0.196854
diagonal:  Solving for rho, Initial residual = 0, Final residual = 0, No Iterations 0
diagonal:  Solving for rhoUx, Initial residual = 0, Final residual = 0, No Iterations 0
diagonal:  Solving for rhoE, Initial residual = 0, Final residual = 0, No Iterations 0

ExecutionTime = 515.41 s  ClockTime = 35989 s  Iterations: 211/220  Projected time to finish: 0.366405 min
Time = 0.00138764


Virtual Number Density of inserted particles: 22720.1
Used Temp: 900
Used Velocity: (-1.9162e-13 0 0)
Delta T: 6.54545e-06
mostProbableSpeed: 731.058
PFA: 1(30.7778)
sCosTheta term: 1(-2.62114e-16)    Particles inserted              = 31
    Collisions                      = 962257
    Acceptance rate                 = 0.505895

Cloud name: dsmc
    Number of dsmc particles        = 88215
    Number of molecules             = 3.5286e+22
    Mass in system                  = 0.0016408
    Average linear momentum         = (4.21183e-24 2.50265e-26 -7.14191e-26)
   |Average linear momentum|        = 4.21251e-24
    Average linear kinetic energy   = 1.61763e-20
    Average internal energy         = 1.02431e-20
    Average total energy            = 2.64194e-20
deltaT = 6.54545e-06
Mean and max Courant Numbers = 0.196854 0.196854
diagonal:  Solving for rho, Initial residual = 0, Final residual = 0, No Iterations 0
diagonal:  Solving for rhoUx, Initial residual = 0, Final residual = 0, No Iterations 0
diagonal:  Solving for rhoE, Initial residual = 0, Final residual = 0, No Iterations 0

ExecutionTime = 516.84 s  ClockTime = 35991 s  Iterations: 212/220  Projected time to finish: 0.325057 min
Time = 0.00139418


Virtual Number Density of inserted particles: 22720.1
Used Temp: 900
Used Velocity: (-2.12912e-13 0 0)
Delta T: 6.54545e-06
mostProbableSpeed: 731.058
PFA: 1(30.4466)
sCosTheta term: 1(-2.91238e-16)    Particles inserted              = 31
    Collisions                      = 962060
    Acceptance rate                 = 0.505781

Cloud name: dsmc
    Number of dsmc particles        = 88225
    Number of molecules             = 3.529e+22
    Mass in system                  = 0.00164099
    Average linear momentum         = (4.22551e-24 2.4649e-26 -7.52397e-26)
   |Average linear momentum|        = 4.22625e-24
    Average linear kinetic energy   = 1.61235e-20
    Average internal energy         = 1.02973e-20
    Average total energy            = 2.64208e-20
deltaT = 6.54545e-06
Mean and max Courant Numbers = 0.196854 0.196854
diagonal:  Solving for rho, Initial residual = 0, Final residual = 0, No Iterations 0
diagonal:  Solving for rhoUx, Initial residual = 0, Final residual = 0, No Iterations 0
diagonal:  Solving for rhoE, Initial residual = 0, Final residual = 0, No Iterations 0

ExecutionTime = 518.38 s  ClockTime = 35992 s  Iterations: 213/220  Projected time to finish: 0.283933 min
Time = 0.00140073


Virtual Number Density of inserted particles: 22720.1
Used Temp: 900
Used Velocity: (-1.49037e-13 0 0)
Delta T: 6.54545e-06
mostProbableSpeed: 731.058
PFA: 1(30.1153)
sCosTheta term: 1(-2.03865e-16)    Particles inserted              = 30
    Collisions                      = 963918
    Acceptance rate                 = 0.506954

Cloud name: dsmc
    Number of dsmc particles        = 88223
    Number of molecules             = 3.52892e+22
    Mass in system                  = 0.00164095
    Average linear momentum         = (4.24509e-24 2.41884e-26 -7.40075e-26)
   |Average linear momentum|        = 4.24581e-24
    Average linear kinetic energy   = 1.61793e-20
    Average internal energy         = 1.02405e-20
    Average total energy            = 2.64198e-20
deltaT = 6.54545e-06
Mean and max Courant Numbers = 0.196854 0.196854
diagonal:  Solving for rho, Initial residual = 0, Final residual = 0, No Iterations 0
diagonal:  Solving for rhoUx, Initial residual = 0, Final residual = 0, No Iterations 0
diagonal:  Solving for rhoE, Initial residual = 0, Final residual = 0, No Iterations 0

ExecutionTime = 520.09 s  ClockTime = 35994 s  Iterations: 214/220  Projected time to finish: 0.243033 min
Time = 0.00140727


Virtual Number Density of inserted particles: 22720.1
Used Temp: 900
Used Velocity: (-1.49037e-13 0 0)
Delta T: 6.54545e-06
mostProbableSpeed: 731.058
PFA: 1(30.7841)
sCosTheta term: 1(-2.03865e-16)    Particles inserted              = 31
    Collisions                      = 964023
    Acceptance rate                 = 0.507203

Cloud name: dsmc
    Number of dsmc particles        = 88227
    Number of molecules             = 3.52908e+22
    Mass in system                  = 0.00164102
    Average linear momentum         = (4.26308e-24 2.30755e-26 -7.74619e-26)
   |Average linear momentum|        = 4.26385e-24
    Average linear kinetic energy   = 1.61485e-20
    Average internal energy         = 1.02715e-20
    Average total energy            = 2.642e-20
deltaT = 6.54545e-06
Mean and max Courant Numbers = 0.196854 0.196854
diagonal:  Solving for rho, Initial residual = 0, Final residual = 0, No Iterations 0
diagonal:  Solving for rhoUx, Initial residual = 0, Final residual = 0, No Iterations 0
diagonal:  Solving for rhoE, Initial residual = 0, Final residual = 0, No Iterations 0

ExecutionTime = 522.04 s  ClockTime = 35996 s  Iterations: 215/220  Projected time to finish: 0.202341 min
Time = 0.00141382


Virtual Number Density of inserted particles: 22720.1
Used Temp: 900
Used Velocity: (-1.27745e-13 0 0)
Delta T: 6.54545e-06
mostProbableSpeed: 731.058
PFA: 1(30.4528)
sCosTheta term: 1(-1.7474e-16)    Particles inserted              = 30
    Collisions                      = 963035
    Acceptance rate                 = 0.506678

Cloud name: dsmc
    Number of dsmc particles        = 88228
    Number of molecules             = 3.52912e+22
    Mass in system                  = 0.00164104
    Average linear momentum         = (4.28203e-24 1.8688e-26 -7.87785e-26)
   |Average linear momentum|        = 4.28279e-24
    Average linear kinetic energy   = 1.60997e-20
    Average internal energy         = 1.03203e-20
    Average total energy            = 2.64199e-20
deltaT = 6.54545e-06
Mean and max Courant Numbers = 0.196854 0.196854
diagonal:  Solving for rho, Initial residual = 0, Final residual = 0, No Iterations 0
diagonal:  Solving for rhoUx, Initial residual = 0, Final residual = 0, No Iterations 0
diagonal:  Solving for rhoE, Initial residual = 0, Final residual = 0, No Iterations 0

ExecutionTime = 523.45 s  ClockTime = 35998 s  Iterations: 216/220  Projected time to finish: 0.161559 min
Time = 0.00142036


Virtual Number Density of inserted particles: 22720.1
Used Temp: 900
Used Velocity: (-1.49037e-13 0 0)
Delta T: 6.54545e-06
mostProbableSpeed: 731.058
PFA: 1(31.1216)
sCosTheta term: 1(-2.03865e-16)    Particles inserted              = 31
    Collisions                      = 961815
    Acceptance rate                 = 0.506372

Cloud name: dsmc
    Number of dsmc particles        = 88222
    Number of molecules             = 3.52888e+22
    Mass in system                  = 0.00164093
    Average linear momentum         = (4.30375e-24 2.22599e-26 -7.78074e-26)
   |Average linear momentum|        = 4.30451e-24
    Average linear kinetic energy   = 1.61605e-20
    Average internal energy         = 1.02565e-20
    Average total energy            = 2.6417e-20
deltaT = 6.54545e-06
Mean and max Courant Numbers = 0.196854 0.196854
diagonal:  Solving for rho, Initial residual = 0, Final residual = 0, No Iterations 0
diagonal:  Solving for rhoUx, Initial residual = 0, Final residual = 0, No Iterations 0
diagonal:  Solving for rhoE, Initial residual = 0, Final residual = 0, No Iterations 0

ExecutionTime = 524.85 s  ClockTime = 35999 s  Iterations: 217/220  Projected time to finish: 0.120933 min
Time = 0.00142691


Virtual Number Density of inserted particles: 22720.1
Used Temp: 900
Used Velocity: (-1.9162e-13 0 0)
Delta T: 6.54545e-06
mostProbableSpeed: 731.058
PFA: 1(30.7904)
sCosTheta term: 1(-2.62114e-16)    Particles inserted              = 31
    Collisions                      = 960527
    Acceptance rate                 = 0.505787

Cloud name: dsmc
    Number of dsmc particles        = 88216
    Number of molecules             = 3.52864e+22
    Mass in system                  = 0.00164082
    Average linear momentum         = (4.32467e-24 2.34456e-26 -8.01239e-26)
   |Average linear momentum|        = 4.32547e-24
    Average linear kinetic energy   = 1.61531e-20
    Average internal energy         = 1.02613e-20
    Average total energy            = 2.64144e-20
deltaT = 6.54545e-06
Mean and max Courant Numbers = 0.196854 0.196854
diagonal:  Solving for rho, Initial residual = 0, Final residual = 0, No Iterations 0
diagonal:  Solving for rhoUx, Initial residual = 0, Final residual = 0, No Iterations 0
diagonal:  Solving for rhoE, Initial residual = 0, Final residual = 0, No Iterations 0

ExecutionTime = 526.24 s  ClockTime = 36000 s  Iterations: 218/220  Projected time to finish: 0.0804648 min
Time = 0.00143345


Virtual Number Density of inserted particles: 22720.1
Used Temp: 900
Used Velocity: (-2.12912e-13 0 0)
Delta T: 6.54545e-06
mostProbableSpeed: 731.058
PFA: 1(30.4591)
sCosTheta term: 1(-2.91238e-16)    Particles inserted              = 31
    Collisions                      = 960119
    Acceptance rate                 = 0.505422

Cloud name: dsmc
    Number of dsmc particles        = 88217
    Number of molecules             = 3.52868e+22
    Mass in system                  = 0.00164084
    Average linear momentum         = (4.34256e-24 2.35933e-26 -7.84938e-26)
   |Average linear momentum|        = 4.34333e-24
    Average linear kinetic energy   = 1.6158e-20
    Average internal energy         = 1.02572e-20
    Average total energy            = 2.64152e-20
deltaT = 6.54545e-06
Mean and max Courant Numbers = 0.196854 0.196854
diagonal:  Solving for rho, Initial residual = 0, Final residual = 0, No Iterations 0
diagonal:  Solving for rhoUx, Initial residual = 0, Final residual = 0, No Iterations 0
diagonal:  Solving for rhoE, Initial residual = 0, Final residual = 0, No Iterations 0

ExecutionTime = 527.57 s  ClockTime = 36002 s  Iterations: 219/220  Projected time to finish: 0.0401499 min
Time = 0.00144


Virtual Number Density of inserted particles: 22720.1
Used Temp: 900
Used Velocity: (-2.34203e-13 0 0)
Delta T: 6.54545e-06
mostProbableSpeed: 731.058
PFA: 1(30.1279)
sCosTheta term: 1(-3.20363e-16)    Particles inserted              = 30
    Collisions                      = 959351
    Acceptance rate                 = 0.505504

Cloud name: dsmc
    Number of dsmc particles        = 88210
    Number of molecules             = 3.5284e+22
    Mass in system                  = 0.00164071
    Average linear momentum         = (4.36378e-24 2.06722e-26 -8.10012e-26)
   |Average linear momentum|        = 4.36459e-24
    Average linear kinetic energy   = 1.61376e-20
    Average internal energy         = 1.02751e-20
    Average total energy            = 2.64127e-20
deltaT = 6.54545e-06
Mean and max Courant Numbers = 0.196854 0.196854
diagonal:  Solving for rho, Initial residual = 0, Final residual = 0, No Iterations 0
diagonal:  Solving for rhoUx, Initial residual = 0, Final residual = 0, No Iterations 0
diagonal:  Solving for rhoE, Initial residual = 0, Final residual = 0, No Iterations 0

ExecutionTime = 529.86 s  ClockTime = 36004 s  Iterations: 220/220  Projected time to finish: 0 min
