/*---------------------------------------------------------------------------*\
  =========                 |
  \\      /  F ield         | OpenFOAM: The Open Source CFD Toolbox
   \\    /   O peration     | Website:  https://openfoam.org
    \\  /    A nd           | Version:  7
     \\/     M anipulation  |
\*---------------------------------------------------------------------------*/
Build  : 7-1ff648926f77
Exec   : Hybrid
Date   : May 29 2020
Time   : 19:33:29
Host   : "DESKTOP-KF81SG4"
PID    : 6137
I/O    : uncollated
Case   : /home/anthonygay1812/OpenFOAM/Working/finalShockTube
nProcs : 1
sigFpe : Enabling floating point exception trapping (FOAM_SIGFPE).
fileModificationChecking : Monitoring run-time modified files using timeStampMaster (fileModificationSkew 10)
allowSystemOperations : Allowing user-supplied system call operations

// * * * * * * * * * * * * * * * * * * * * * * * * * * * * * * * * * * * * * //
Create time

Create mesh for time = 0

Create mesh for time = 0

Meshes created
Reading thermophysical properties

Selecting thermodynamics package 
{
    type            hePsiThermo;
    mixture         pureMixture;
    transport       const;
    thermo          hConst;
    equationOfState perfectGas;
    specie          specie;
    energy          sensibleInternalEnergy;
}

Reading field U

Creating turbulence model

Selecting turbulence model type laminar
Selecting laminar stress model Stokes
fluxScheme: Kurganov
Initialising dsmc for Time = 0


Constructing constant properties for
    N2

Initialising particles

Knudsen:17597.9
Particle regime for cells 0 to 300

Knudsen:60659.6
Particle regime for cells 300 to 600

Total number of molecules added: 87951


ClockTime = 2 s


Constructing dsmcCloud 
Using dynamicCode for patch DSMCBound on field boundaryT at line 19 in "/home/anthonygay1812/OpenFOAM/Working/finalShockTube/system/particle/codeDict.HPCParticleT"
Creating new library in "dynamicCode/HPCParticleT/platforms/linux64GccDPInt32Opt/lib/libHPCParticleT_a5aa7ad21e0a65ce953ad1b996ebea21aa4a09ce.so"
Invoking "wmake -s libso /home/anthonygay1812/OpenFOAM/Working/finalShockTube/dynamicCode/HPCParticleT"
wmake libso /home/anthonygay1812/OpenFOAM/Working/finalShockTube/dynamicCode/HPCParticleT
    ln: ./lnInclude
    wmkdep: fixedValueFvPatchFieldTemplate.C
    Ctoo: fixedValueFvPatchFieldTemplate.C
    ld: /home/anthonygay1812/OpenFOAM/Working/finalShockTube/dynamicCode/HPCParticleT/../platforms/linux64GccDPInt32Opt/lib/libHPCParticleT_a5aa7ad21e0a65ce953ad1b996ebea21aa4a09ce.so
Using dynamicCode for patch DSMCBound on field boundaryU at line 38 in "/home/anthonygay1812/OpenFOAM/Working/finalShockTube/system/particle/codeDict.HPCParticleU"
Creating new library in "dynamicCode/HPCParticleU/platforms/linux64GccDPInt32Opt/lib/libHPCParticleU_cb97bb81a9b2557ddbcbad5e4e7952fe79b923b6.so"
Invoking "wmake -s libso /home/anthonygay1812/OpenFOAM/Working/finalShockTube/dynamicCode/HPCParticleU"
wmake libso /home/anthonygay1812/OpenFOAM/Working/finalShockTube/dynamicCode/HPCParticleU
    ln: ./lnInclude
    wmkdep: fixedValueFvPatchFieldTemplate.C
    Ctoo: fixedValueFvPatchFieldTemplate.C
    ld: /home/anthonygay1812/OpenFOAM/Working/finalShockTube/dynamicCode/HPCParticleU/../platforms/linux64GccDPInt32Opt/lib/libHPCParticleU_cb97bb81a9b2557ddbcbad5e4e7952fe79b923b6.so
Selecting BinaryCollisionModel LarsenBorgnakkeVariableHardSphere
Selecting WallInteractionModel MaxwellianThermal
Selecting InflowBoundaryModel oneDirectionalHybridDSMC

Constructing constant properties for
    N2
Time = 6e-06


DSMC BC
Number Density of inserted particles: 22720.1
Face Areas: 1(1)
Delta T: 6e-06
MPS: 1(422.076)
Exp term: 1(0.282095)
Face Accumulator: 16.2311
Number of Whole Particles to insert: 16
Number of Whole Particles to insert +extra: 16    Particles inserted              = 16
    Collisions                      = 746519
    Acceptance rate                 = 0.964075

Cloud name: dsmc
    Number of dsmc particles        = 87933
    Number of molecules             = 3.51732e+22
    Mass in system                  = 0.00163555
    Average linear momentum         = (1.61072e-25 2.25319e-27 -6.74761e-26)
   |Average linear momentum|        = 1.74649e-25
    Average linear kinetic energy   = 1.65804e-20
    Average internal energy         = 9.80474e-21
    Average total energy            = 2.63851e-20
deltaT = 7.08e-06
Mean and max Courant Numbers = 0.21293 0.21293
diagonal:  Solving for rho, Initial residual = 0, Final residual = 0, No Iterations 0
diagonal:  Solving for rhoUx, Initial residual = 0, Final residual = 0, No Iterations 0
diagonal:  Solving for rhoE, Initial residual = 0, Final residual = 0, No Iterations 0

ExecutionTime = 3.94 s  ClockTime = 38 s  Iterations: 0.847458/203.39  Projected time to finish: 15.6943 min
Time = 1.308e-05


DSMC BC
Number Density of inserted particles: 22720.1
Face Areas: 1(1)
Delta T: 7.08e-06
MPS: 1(422.076)
Exp term: 1(0.282095)
Face Accumulator: 19.3837
Number of Whole Particles to insert: 19
Number of Whole Particles to insert +extra: 19    Particles inserted              = 19
    Collisions                      = 1112474
    Acceptance rate                 = 0.578979

Cloud name: dsmc
    Number of dsmc particles        = 87925
    Number of molecules             = 3.517e+22
    Mass in system                  = 0.00163541
    Average linear momentum         = (1.74223e-25 4.05713e-27 -7.04428e-26)
   |Average linear momentum|        = 1.87968e-25
    Average linear kinetic energy   = 1.58721e-20
    Average internal energy         = 1.05076e-20
    Average total energy            = 2.63797e-20
deltaT = 6.54566e-06
Mean and max Courant Numbers = 0.19686 0.19686
diagonal:  Solving for rho, Initial residual = 0, Final residual = 0, No Iterations 0
diagonal:  Solving for rhoUx, Initial residual = 0, Final residual = 0, No Iterations 0
diagonal:  Solving for rhoE, Initial residual = 0, Final residual = 0, No Iterations 0

ExecutionTime = 6.26 s  ClockTime = 41 s  Iterations: 1.99827/219.993  Projected time to finish: 11.3819 min
Time = 1.96257e-05


DSMC BC
Number Density of inserted particles: 22720.1
Face Areas: 1(1)
Delta T: 6.54566e-06
MPS: 1(422.076)
Exp term: 1(0.282095)
Face Accumulator: 18.0909
Number of Whole Particles to insert: 18
Number of Whole Particles to insert +extra: 18    Particles inserted              = 18
    Collisions                      = 1027045
    Acceptance rate                 = 0.5617

Cloud name: dsmc
    Number of dsmc particles        = 87909
    Number of molecules             = 3.51636e+22
    Mass in system                  = 0.00163511
    Average linear momentum         = (1.87131e-25 2.94915e-27 -7.04443e-26)
   |Average linear momentum|        = 1.99972e-25
    Average linear kinetic energy   = 1.58467e-20
    Average internal energy         = 1.05273e-20
    Average total energy            = 2.6374e-20
deltaT = 6.54566e-06
Mean and max Courant Numbers = 0.19686 0.19686
diagonal:  Solving for rho, Initial residual = 0, Final residual = 0, No Iterations 0
diagonal:  Solving for rhoUx, Initial residual = 0, Final residual = 0, No Iterations 0
diagonal:  Solving for rhoE, Initial residual = 0, Final residual = 0, No Iterations 0

ExecutionTime = 8.69 s  ClockTime = 43 s  Iterations: 2.99827/219.993  Projected time to finish: 10.4821 min
Time = 2.61713e-05


DSMC BC
Number Density of inserted particles: 22720.1
Face Areas: 1(1)
Delta T: 6.54566e-06
MPS: 1(422.076)
Exp term: 1(0.282095)
Face Accumulator: 17.7981
Number of Whole Particles to insert: 17
Number of Whole Particles to insert +extra: 18    Particles inserted              = 18
    Collisions                      = 1026762
    Acceptance rate                 = 0.554525

Cloud name: dsmc
    Number of dsmc particles        = 87899
    Number of molecules             = 3.51596e+22
    Mass in system                  = 0.00163492
    Average linear momentum         = (2.00667e-25 2.59442e-27 -6.93914e-26)
   |Average linear momentum|        = 2.12342e-25
    Average linear kinetic energy   = 1.58023e-20
    Average internal energy         = 1.05682e-20
    Average total energy            = 2.63704e-20
deltaT = 6.54566e-06
Mean and max Courant Numbers = 0.19686 0.19686
diagonal:  Solving for rho, Initial residual = 0, Final residual = 0, No Iterations 0
diagonal:  Solving for rhoUx, Initial residual = 0, Final residual = 0, No Iterations 0
diagonal:  Solving for rhoE, Initial residual = 0, Final residual = 0, No Iterations 0

ExecutionTime = 10.94 s  ClockTime = 45 s  Iterations: 3.99827/219.993  Projected time to finish: 9.85002 min
Time = 3.2717e-05


DSMC BC
Number Density of inserted particles: 22720.1
Face Areas: 1(1)
Delta T: 6.54566e-06
MPS: 1(422.076)
Exp term: 1(0.282095)
Face Accumulator: 17.5053
Number of Whole Particles to insert: 17
Number of Whole Particles to insert +extra: 17    Particles inserted              = 17
    Collisions                      = 1025993
    Acceptance rate                 = 0.549578

Cloud name: dsmc
    Number of dsmc particles        = 87880
    Number of molecules             = 3.5152e+22
    Mass in system                  = 0.00163457
    Average linear momentum         = (2.16724e-25 -6.43055e-29 -6.80864e-26)
   |Average linear momentum|        = 2.27168e-25
    Average linear kinetic energy   = 1.5806e-20
    Average internal energy         = 1.05593e-20
    Average total energy            = 2.63653e-20
deltaT = 6.54566e-06
Mean and max Courant Numbers = 0.19686 0.19686
diagonal:  Solving for rho, Initial residual = 0, Final residual = 0, No Iterations 0
diagonal:  Solving for rhoUx, Initial residual = 0, Final residual = 0, No Iterations 0
diagonal:  Solving for rhoE, Initial residual = 0, Final residual = 0, No Iterations 0

ExecutionTime = 13.14 s  ClockTime = 47 s  Iterations: 4.99827/219.993  Projected time to finish: 9.42003 min
Time = 3.92626e-05


DSMC BC
Number Density of inserted particles: 22720.1
Face Areas: 1(1)
Delta T: 6.54566e-06
MPS: 1(422.076)
Exp term: 1(0.282095)
Face Accumulator: 18.2124
Number of Whole Particles to insert: 18
Number of Whole Particles to insert +extra: 18    Particles inserted              = 18
    Collisions                      = 1024031
    Acceptance rate                 = 0.546233

Cloud name: dsmc
    Number of dsmc particles        = 87872
    Number of molecules             = 3.51488e+22
    Mass in system                  = 0.00163442
    Average linear momentum         = (2.24783e-25 -4.35449e-28 -6.67689e-26)
   |Average linear momentum|        = 2.34491e-25
    Average linear kinetic energy   = 1.579e-20
    Average internal energy         = 1.05719e-20
    Average total energy            = 2.63619e-20
deltaT = 6.54566e-06
Mean and max Courant Numbers = 0.19686 0.19686
diagonal:  Solving for rho, Initial residual = 0, Final residual = 0, No Iterations 0
diagonal:  Solving for rhoUx, Initial residual = 0, Final residual = 0, No Iterations 0
diagonal:  Solving for rhoE, Initial residual = 0, Final residual = 0, No Iterations 0

ExecutionTime = 15.45 s  ClockTime = 50 s  Iterations: 5.99827/219.993  Projected time to finish: 9.18659 min
Time = 4.58083e-05


DSMC BC
Number Density of inserted particles: 22720.1
Face Areas: 1(1)
Delta T: 6.54566e-06
MPS: 1(422.076)
Exp term: 1(0.282095)
Face Accumulator: 17.9196
Number of Whole Particles to insert: 17
Number of Whole Particles to insert +extra: 18    Particles inserted              = 18
    Collisions                      = 1024664
    Acceptance rate                 = 0.544445

Cloud name: dsmc
    Number of dsmc particles        = 87854
    Number of molecules             = 3.51416e+22
    Mass in system                  = 0.00163408
    Average linear momentum         = (2.38452e-25 -1.65629e-27 -6.89013e-26)
   |Average linear momentum|        = 2.48212e-25
    Average linear kinetic energy   = 1.58109e-20
    Average internal energy         = 1.05468e-20
    Average total energy            = 2.63577e-20
deltaT = 6.54566e-06
Mean and max Courant Numbers = 0.19686 0.19686
diagonal:  Solving for rho, Initial residual = 0, Final residual = 0, No Iterations 0
diagonal:  Solving for rhoUx, Initial residual = 0, Final residual = 0, No Iterations 0
diagonal:  Solving for rhoE, Initial residual = 0, Final residual = 0, No Iterations 0

ExecutionTime = 17.73 s  ClockTime = 52 s  Iterations: 6.99827/219.993  Projected time to finish: 8.99365 min
Time = 5.2354e-05


DSMC BC
Number Density of inserted particles: 22720.1
Face Areas: 1(1)
Delta T: 6.54566e-06
MPS: 1(422.076)
Exp term: 1(0.282095)
Face Accumulator: 17.6268
Number of Whole Particles to insert: 17
Number of Whole Particles to insert +extra: 17    Particles inserted              = 17
    Collisions                      = 1024002
    Acceptance rate                 = 0.541997

Cloud name: dsmc
    Number of dsmc particles        = 87834
    Number of molecules             = 3.51336e+22
    Mass in system                  = 0.00163371
    Average linear momentum         = (2.52033e-25 -1.56677e-27 -6.88441e-26)
   |Average linear momentum|        = 2.61271e-25
    Average linear kinetic energy   = 1.57741e-20
    Average internal energy         = 1.05801e-20
    Average total energy            = 2.63542e-20
deltaT = 6.54566e-06
Mean and max Courant Numbers = 0.19686 0.19686
diagonal:  Solving for rho, Initial residual = 0, Final residual = 0, No Iterations 0
diagonal:  Solving for rhoUx, Initial residual = 0, Final residual = 0, No Iterations 0
diagonal:  Solving for rhoE, Initial residual = 0, Final residual = 0, No Iterations 0

ExecutionTime = 20.08 s  ClockTime = 54 s  Iterations: 7.99827/219.993  Projected time to finish: 8.87037 min
Time = 5.88996e-05


DSMC BC
Number Density of inserted particles: 22720.1
Face Areas: 1(1)
Delta T: 6.54566e-06
MPS: 1(422.076)
Exp term: 1(0.282095)
Face Accumulator: 18.334
Number of Whole Particles to insert: 18
Number of Whole Particles to insert +extra: 19    Particles inserted              = 19
    Collisions                      = 1024003
    Acceptance rate                 = 0.54093

Cloud name: dsmc
    Number of dsmc particles        = 87819
    Number of molecules             = 3.51276e+22
    Mass in system                  = 0.00163343
    Average linear momentum         = (2.63634e-25 4.8286e-29 -6.92126e-26)
   |Average linear momentum|        = 2.72568e-25
    Average linear kinetic energy   = 1.58198e-20
    Average internal energy         = 1.05313e-20
    Average total energy            = 2.6351e-20
deltaT = 6.54566e-06
Mean and max Courant Numbers = 0.19686 0.19686
diagonal:  Solving for rho, Initial residual = 0, Final residual = 0, No Iterations 0
diagonal:  Solving for rhoUx, Initial residual = 0, Final residual = 0, No Iterations 0
diagonal:  Solving for rhoE, Initial residual = 0, Final residual = 0, No Iterations 0

ExecutionTime = 22.37 s  ClockTime = 57 s  Iterations: 8.99827/219.993  Projected time to finish: 8.74234 min
Time = 6.54453e-05


DSMC BC
Number Density of inserted particles: 22720.1
Face Areas: 1(1)
Delta T: 6.54566e-06
MPS: 1(422.076)
Exp term: 1(0.282095)
Face Accumulator: 17.0411
Number of Whole Particles to insert: 17
Number of Whole Particles to insert +extra: 17    Particles inserted              = 17
    Collisions                      = 1021352
    Acceptance rate                 = 0.53811

Cloud name: dsmc
    Number of dsmc particles        = 87802
    Number of molecules             = 3.51208e+22
    Mass in system                  = 0.00163312
    Average linear momentum         = (2.73576e-25 -1.23356e-27 -6.93338e-26)
   |Average linear momentum|        = 2.82228e-25
    Average linear kinetic energy   = 1.57902e-20
    Average internal energy         = 1.05589e-20
    Average total energy            = 2.63491e-20
deltaT = 6.54566e-06
Mean and max Courant Numbers = 0.19686 0.19686
diagonal:  Solving for rho, Initial residual = 0, Final residual = 0, No Iterations 0
diagonal:  Solving for rhoUx, Initial residual = 0, Final residual = 0, No Iterations 0
diagonal:  Solving for rhoE, Initial residual = 0, Final residual = 0, No Iterations 0

ExecutionTime = 24.72 s  ClockTime = 59 s  Iterations: 9.99827/219.993  Projected time to finish: 8.65328 min
Time = 7.19909e-05


DSMC BC
Number Density of inserted particles: 22720.1
Face Areas: 1(1)
Delta T: 6.54566e-06
MPS: 1(422.076)
Exp term: 1(0.282095)
Face Accumulator: 17.7483
Number of Whole Particles to insert: 17
Number of Whole Particles to insert +extra: 18    Particles inserted              = 18
    Collisions                      = 1020090
    Acceptance rate                 = 0.537242

Cloud name: dsmc
    Number of dsmc particles        = 87795
    Number of molecules             = 3.5118e+22
    Mass in system                  = 0.00163299
    Average linear momentum         = (2.83525e-25 -7.09961e-28 -6.87562e-26)
   |Average linear momentum|        = 2.91744e-25
    Average linear kinetic energy   = 1.58759e-20
    Average internal energy         = 1.04698e-20
    Average total energy            = 2.63457e-20
deltaT = 6.54566e-06
Mean and max Courant Numbers = 0.19686 0.19686
diagonal:  Solving for rho, Initial residual = 0, Final residual = 0, No Iterations 0
diagonal:  Solving for rhoUx, Initial residual = 0, Final residual = 0, No Iterations 0
diagonal:  Solving for rhoE, Initial residual = 0, Final residual = 0, No Iterations 0

ExecutionTime = 26.97 s  ClockTime = 61 s  Iterations: 10.9983/219.993  Projected time to finish: 8.54163 min
Time = 7.85366e-05


DSMC BC
Number Density of inserted particles: 22720.1
Face Areas: 1(1)
Delta T: 6.54566e-06
MPS: 1(422.076)
Exp term: 1(0.282095)
Face Accumulator: 17.4555
Number of Whole Particles to insert: 17
Number of Whole Particles to insert +extra: 18    Particles inserted              = 18
    Collisions                      = 1020217
    Acceptance rate                 = 0.536456

Cloud name: dsmc
    Number of dsmc particles        = 87777
    Number of molecules             = 3.51108e+22
    Mass in system                  = 0.00163265
    Average linear momentum         = (2.98014e-25 -5.49862e-28 -6.86751e-26)
   |Average linear momentum|        = 3.05825e-25
    Average linear kinetic energy   = 1.58304e-20
    Average internal energy         = 1.0513e-20
    Average total energy            = 2.63434e-20
deltaT = 6.54566e-06
Mean and max Courant Numbers = 0.19686 0.19686
diagonal:  Solving for rho, Initial residual = 0, Final residual = 0, No Iterations 0
diagonal:  Solving for rhoUx, Initial residual = 0, Final residual = 0, No Iterations 0
diagonal:  Solving for rhoE, Initial residual = 0, Final residual = 0, No Iterations 0

ExecutionTime = 29.47 s  ClockTime = 64 s  Iterations: 11.9983/219.993  Projected time to finish: 8.51457 min
Time = 8.50823e-05


DSMC BC
Number Density of inserted particles: 22720.1
Face Areas: 1(1)
Delta T: 6.54566e-06
MPS: 1(422.076)
Exp term: 1(0.282095)
Face Accumulator: 17.1627
Number of Whole Particles to insert: 17
Number of Whole Particles to insert +extra: 17    Particles inserted              = 17
    Collisions                      = 1020662
    Acceptance rate                 = 0.5355

Cloud name: dsmc
    Number of dsmc particles        = 87759
    Number of molecules             = 3.51036e+22
    Mass in system                  = 0.00163232
    Average linear momentum         = (3.10809e-25 -2.96871e-28 -6.67297e-26)
   |Average linear momentum|        = 3.17891e-25
    Average linear kinetic energy   = 1.58323e-20
    Average internal energy         = 1.05069e-20
    Average total energy            = 2.63392e-20
deltaT = 6.54566e-06
Mean and max Courant Numbers = 0.19686 0.19686
diagonal:  Solving for rho, Initial residual = 0, Final residual = 0, No Iterations 0
diagonal:  Solving for rhoUx, Initial residual = 0, Final residual = 0, No Iterations 0
diagonal:  Solving for rhoE, Initial residual = 0, Final residual = 0, No Iterations 0

ExecutionTime = 31.87 s  ClockTime = 66 s  Iterations: 12.9983/219.993  Projected time to finish: 8.45872 min
Time = 9.16279e-05


DSMC BC
Number Density of inserted particles: 22720.1
Face Areas: 1(1)
Delta T: 6.54566e-06
MPS: 1(422.076)
Exp term: 1(0.282095)
Face Accumulator: 17.8698
Number of Whole Particles to insert: 17
Number of Whole Particles to insert +extra: 18    Particles inserted              = 18
    Collisions                      = 1018790
    Acceptance rate                 = 0.53413

Cloud name: dsmc
    Number of dsmc particles        = 87729
    Number of molecules             = 3.50916e+22
    Mass in system                  = 0.00163176
    Average linear momentum         = (3.29075e-25 6.78925e-29 -6.67762e-26)
   |Average linear momentum|        = 3.35781e-25
    Average linear kinetic energy   = 1.58128e-20
    Average internal energy         = 1.05225e-20
    Average total energy            = 2.63353e-20
deltaT = 6.54566e-06
Mean and max Courant Numbers = 0.19686 0.19686
diagonal:  Solving for rho, Initial residual = 0, Final residual = 0, No Iterations 0
diagonal:  Solving for rhoUx, Initial residual = 0, Final residual = 0, No Iterations 0
diagonal:  Solving for rhoE, Initial residual = 0, Final residual = 0, No Iterations 0

ExecutionTime = 34.19 s  ClockTime = 69 s  Iterations: 13.9983/219.993  Projected time to finish: 8.38552 min
Time = 9.81736e-05


DSMC BC
Number Density of inserted particles: 22720.1
Face Areas: 1(1)
Delta T: 6.54566e-06
MPS: 1(422.076)
Exp term: 1(0.282095)
Face Accumulator: 17.577
Number of Whole Particles to insert: 17
Number of Whole Particles to insert +extra: 18    Particles inserted              = 18
    Collisions                      = 1018249
    Acceptance rate                 = 0.533716

Cloud name: dsmc
    Number of dsmc particles        = 87693
    Number of molecules             = 3.50772e+22
    Mass in system                  = 0.00163109
    Average linear momentum         = (3.47893e-25 1.6079e-29 -6.56534e-26)
   |Average linear momentum|        = 3.54034e-25
    Average linear kinetic energy   = 1.57919e-20
    Average internal energy         = 1.0542e-20
    Average total energy            = 2.63339e-20
deltaT = 6.54566e-06
Mean and max Courant Numbers = 0.19686 0.19686
diagonal:  Solving for rho, Initial residual = 0, Final residual = 0, No Iterations 0
diagonal:  Solving for rhoUx, Initial residual = 0, Final residual = 0, No Iterations 0
diagonal:  Solving for rhoE, Initial residual = 0, Final residual = 0, No Iterations 0

ExecutionTime = 36.6 s  ClockTime = 71 s  Iterations: 14.9983/219.993  Projected time to finish: 8.33742 min
Time = 0.000104719


DSMC BC
Number Density of inserted particles: 22720.1
Face Areas: 1(1)
Delta T: 6.54566e-06
MPS: 1(422.076)
Exp term: 1(0.282095)
Face Accumulator: 17.2842
Number of Whole Particles to insert: 17
Number of Whole Particles to insert +extra: 17    Particles inserted              = 17
    Collisions                      = 1017002
    Acceptance rate                 = 0.532748

Cloud name: dsmc
    Number of dsmc particles        = 87669
    Number of molecules             = 3.50676e+22
    Mass in system                  = 0.00163064
    Average linear momentum         = (3.60512e-25 -6.31667e-28 -6.43494e-26)
   |Average linear momentum|        = 3.6621e-25
    Average linear kinetic energy   = 1.58218e-20
    Average internal energy         = 1.05097e-20
    Average total energy            = 2.63315e-20
deltaT = 6.54566e-06
Mean and max Courant Numbers = 0.19686 0.19686
diagonal:  Solving for rho, Initial residual = 0, Final residual = 0, No Iterations 0
diagonal:  Solving for rhoUx, Initial residual = 0, Final residual = 0, No Iterations 0
diagonal:  Solving for rhoE, Initial residual = 0, Final residual = 0, No Iterations 0

ExecutionTime = 39.08 s  ClockTime = 74 s  Iterations: 15.9983/219.993  Projected time to finish: 8.30519 min
Time = 0.000111265


DSMC BC
Number Density of inserted particles: 22720.1
Face Areas: 1(1)
Delta T: 6.54566e-06
MPS: 1(422.076)
Exp term: 1(0.282095)
Face Accumulator: 17.9914
Number of Whole Particles to insert: 17
Number of Whole Particles to insert +extra: 18    Particles inserted              = 18
    Collisions                      = 1015445
    Acceptance rate                 = 0.531926

Cloud name: dsmc
    Number of dsmc particles        = 87647
    Number of molecules             = 3.50588e+22
    Mass in system                  = 0.00163023
    Average linear momentum         = (3.78016e-25 6.68465e-29 -6.26205e-26)
   |Average linear momentum|        = 3.83168e-25
    Average linear kinetic energy   = 1.58068e-20
    Average internal energy         = 1.05195e-20
    Average total energy            = 2.63263e-20
deltaT = 6.54566e-06
Mean and max Courant Numbers = 0.19686 0.19686
diagonal:  Solving for rho, Initial residual = 0, Final residual = 0, No Iterations 0
diagonal:  Solving for rhoUx, Initial residual = 0, Final residual = 0, No Iterations 0
diagonal:  Solving for rhoE, Initial residual = 0, Final residual = 0, No Iterations 0

ExecutionTime = 41.5 s  ClockTime = 76 s  Iterations: 16.9983/219.993  Projected time to finish: 8.25994 min
Time = 0.000117811


DSMC BC
Number Density of inserted particles: 22720.1
Face Areas: 1(1)
Delta T: 6.54566e-06
MPS: 1(422.076)
Exp term: 1(0.282095)
Face Accumulator: 17.6985
Number of Whole Particles to insert: 17
Number of Whole Particles to insert +extra: 18    Particles inserted              = 18
    Collisions                      = 1015700
    Acceptance rate                 = 0.5316

Cloud name: dsmc
    Number of dsmc particles        = 87639
    Number of molecules             = 3.50556e+22
    Mass in system                  = 0.00163009
    Average linear momentum         = (3.88625e-25 -1.94786e-27 -6.22292e-26)
   |Average linear momentum|        = 3.9358e-25
    Average linear kinetic energy   = 1.5804e-20
    Average internal energy         = 1.05188e-20
    Average total energy            = 2.63228e-20
deltaT = 6.54566e-06
Mean and max Courant Numbers = 0.19686 0.19686
diagonal:  Solving for rho, Initial residual = 0, Final residual = 0, No Iterations 0
diagonal:  Solving for rhoUx, Initial residual = 0, Final residual = 0, No Iterations 0
diagonal:  Solving for rhoE, Initial residual = 0, Final residual = 0, No Iterations 0

ExecutionTime = 43.94 s  ClockTime = 79 s  Iterations: 17.9983/219.993  Projected time to finish: 8.21899 min
Time = 0.000124356


DSMC BC
Number Density of inserted particles: 22720.1
Face Areas: 1(1)
Delta T: 6.54566e-06
MPS: 1(422.076)
Exp term: 1(0.282095)
Face Accumulator: 17.4057
Number of Whole Particles to insert: 17
Number of Whole Particles to insert +extra: 17    Particles inserted              = 17
    Collisions                      = 1014750
    Acceptance rate                 = 0.530971

Cloud name: dsmc
    Number of dsmc particles        = 87627
    Number of molecules             = 3.50508e+22
    Mass in system                  = 0.00162986
    Average linear momentum         = (4.0109e-25 -2.30501e-27 -6.19335e-26)
   |Average linear momentum|        = 4.0585e-25
    Average linear kinetic energy   = 1.58083e-20
    Average internal energy         = 1.05101e-20
    Average total energy            = 2.63184e-20
deltaT = 6.54566e-06
Mean and max Courant Numbers = 0.19686 0.19686
diagonal:  Solving for rho, Initial residual = 0, Final residual = 0, No Iterations 0
diagonal:  Solving for rhoUx, Initial residual = 0, Final residual = 0, No Iterations 0
diagonal:  Solving for rhoE, Initial residual = 0, Final residual = 0, No Iterations 0

ExecutionTime = 46.52 s  ClockTime = 81 s  Iterations: 18.9983/219.993  Projected time to finish: 8.20275 min
Time = 0.000130902


DSMC BC
Number Density of inserted particles: 22720.1
Face Areas: 1(1)
Delta T: 6.54566e-06
MPS: 1(422.076)
Exp term: 1(0.282095)
Face Accumulator: 18.1129
Number of Whole Particles to insert: 18
Number of Whole Particles to insert +extra: 19    Particles inserted              = 19
    Collisions                      = 1014272
    Acceptance rate                 = 0.530544

Cloud name: dsmc
    Number of dsmc particles        = 87615
    Number of molecules             = 3.5046e+22
    Mass in system                  = 0.00162964
    Average linear momentum         = (4.12616e-25 -2.9114e-27 -6.09041e-26)
   |Average linear momentum|        = 4.17097e-25
    Average linear kinetic energy   = 1.587e-20
    Average internal energy         = 1.04456e-20
    Average total energy            = 2.63156e-20
deltaT = 6.54566e-06
Mean and max Courant Numbers = 0.19686 0.19686
diagonal:  Solving for rho, Initial residual = 0, Final residual = 0, No Iterations 0
diagonal:  Solving for rhoUx, Initial residual = 0, Final residual = 0, No Iterations 0
diagonal:  Solving for rhoE, Initial residual = 0, Final residual = 0, No Iterations 0

ExecutionTime = 48.88 s  ClockTime = 84 s  Iterations: 19.9983/219.993  Projected time to finish: 8.14716 min
Time = 0.000137448


DSMC BC
Number Density of inserted particles: 22720.1
Face Areas: 1(1)
Delta T: 6.54566e-06
MPS: 1(422.076)
Exp term: 1(0.282095)
Face Accumulator: 16.8201
Number of Whole Particles to insert: 16
Number of Whole Particles to insert +extra: 17    Particles inserted              = 17
    Collisions                      = 1013419
    Acceptance rate                 = 0.53021

Cloud name: dsmc
    Number of dsmc particles        = 87598
    Number of molecules             = 3.50392e+22
    Mass in system                  = 0.00162932
    Average linear momentum         = (4.24196e-25 -2.08903e-27 -6.01141e-26)
   |Average linear momentum|        = 4.28439e-25
    Average linear kinetic energy   = 1.58525e-20
    Average internal energy         = 1.04626e-20
    Average total energy            = 2.63151e-20
deltaT = 6.54566e-06
Mean and max Courant Numbers = 0.19686 0.19686
diagonal:  Solving for rho, Initial residual = 0, Final residual = 0, No Iterations 0
diagonal:  Solving for rhoUx, Initial residual = 0, Final residual = 0, No Iterations 0
diagonal:  Solving for rhoE, Initial residual = 0, Final residual = 0, No Iterations 0

ExecutionTime = 51.35 s  ClockTime = 86 s  Iterations: 20.9983/219.993  Projected time to finish: 8.1105 min
Time = 0.000143993


DSMC BC
Number Density of inserted particles: 22720.1
Face Areas: 1(1)
Delta T: 6.54566e-06
MPS: 1(422.076)
Exp term: 1(0.282095)
Face Accumulator: 17.5272
Number of Whole Particles to insert: 17
Number of Whole Particles to insert +extra: 18    Particles inserted              = 18
    Collisions                      = 1012243
    Acceptance rate                 = 0.52934

Cloud name: dsmc
    Number of dsmc particles        = 87570
    Number of molecules             = 3.5028e+22
    Mass in system                  = 0.0016288
    Average linear momentum         = (4.41579e-25 -2.70999e-27 -6.17552e-26)
   |Average linear momentum|        = 4.45884e-25
    Average linear kinetic energy   = 1.58246e-20
    Average internal energy         = 1.04873e-20
    Average total energy            = 2.63119e-20
deltaT = 6.54566e-06
Mean and max Courant Numbers = 0.19686 0.19686
diagonal:  Solving for rho, Initial residual = 0, Final residual = 0, No Iterations 0
diagonal:  Solving for rhoUx, Initial residual = 0, Final residual = 0, No Iterations 0
diagonal:  Solving for rhoE, Initial residual = 0, Final residual = 0, No Iterations 0

ExecutionTime = 53.77 s  ClockTime = 89 s  Iterations: 21.9983/219.993  Projected time to finish: 8.06592 min
Time = 0.000150539


DSMC BC
Number Density of inserted particles: 22720.1
Face Areas: 1(1)
Delta T: 6.54566e-06
MPS: 1(422.076)
Exp term: 1(0.282095)
Face Accumulator: 17.2344
Number of Whole Particles to insert: 17
Number of Whole Particles to insert +extra: 17    Particles inserted              = 17
    Collisions                      = 1010944
    Acceptance rate                 = 0.529254

Cloud name: dsmc
    Number of dsmc particles        = 87544
    Number of molecules             = 3.50176e+22
    Mass in system                  = 0.00162832
    Average linear momentum         = (4.55159e-25 -5.13615e-27 -6.32628e-26)
   |Average linear momentum|        = 4.59563e-25
    Average linear kinetic energy   = 1.586e-20
    Average internal energy         = 1.04502e-20
    Average total energy            = 2.63102e-20
deltaT = 6.54566e-06
Mean and max Courant Numbers = 0.19686 0.19686
diagonal:  Solving for rho, Initial residual = 0, Final residual = 0, No Iterations 0
diagonal:  Solving for rhoUx, Initial residual = 0, Final residual = 0, No Iterations 0
diagonal:  Solving for rhoE, Initial residual = 0, Final residual = 0, No Iterations 0

ExecutionTime = 56.25 s  ClockTime = 91 s  Iterations: 22.9983/219.993  Projected time to finish: 8.03028 min
Time = 0.000157085


DSMC BC
Number Density of inserted particles: 22720.1
Face Areas: 1(1)
Delta T: 6.54566e-06
MPS: 1(422.076)
Exp term: 1(0.282095)
Face Accumulator: 17.9416
Number of Whole Particles to insert: 17
Number of Whole Particles to insert +extra: 18    Particles inserted              = 18
    Collisions                      = 1012295
    Acceptance rate                 = 0.529375

Cloud name: dsmc
    Number of dsmc particles        = 87522
    Number of molecules             = 3.50088e+22
    Mass in system                  = 0.00162791
    Average linear momentum         = (4.69147e-25 -6.13649e-27 -6.53258e-26)
   |Average linear momentum|        = 4.73713e-25
    Average linear kinetic energy   = 1.58194e-20
    Average internal energy         = 1.04867e-20
    Average total energy            = 2.63061e-20
deltaT = 6.54566e-06
Mean and max Courant Numbers = 0.19686 0.19686
diagonal:  Solving for rho, Initial residual = 0, Final residual = 0, No Iterations 0
diagonal:  Solving for rhoUx, Initial residual = 0, Final residual = 0, No Iterations 0
diagonal:  Solving for rhoE, Initial residual = 0, Final residual = 0, No Iterations 0

ExecutionTime = 58.83 s  ClockTime = 94 s  Iterations: 23.9983/219.993  Projected time to finish: 8.00778 min
Time = 0.00016363


DSMC BC
Number Density of inserted particles: 22720.1
Face Areas: 1(1)
Delta T: 6.54566e-06
MPS: 1(422.076)
Exp term: 1(0.282095)
Face Accumulator: 17.6488
Number of Whole Particles to insert: 17
Number of Whole Particles to insert +extra: 18    Particles inserted              = 18
    Collisions                      = 1010576
    Acceptance rate                 = 0.52801

Cloud name: dsmc
    Number of dsmc particles        = 87502
    Number of molecules             = 3.50008e+22
    Mass in system                  = 0.00162754
    Average linear momentum         = (4.82801e-25 -6.56347e-27 -6.72332e-26)
   |Average linear momentum|        = 4.87504e-25
    Average linear kinetic energy   = 1.57976e-20
    Average internal energy         = 1.0506e-20
    Average total energy            = 2.63036e-20
deltaT = 6.54566e-06
Mean and max Courant Numbers = 0.19686 0.19686
diagonal:  Solving for rho, Initial residual = 0, Final residual = 0, No Iterations 0
diagonal:  Solving for rhoUx, Initial residual = 0, Final residual = 0, No Iterations 0
diagonal:  Solving for rhoE, Initial residual = 0, Final residual = 0, No Iterations 0

ExecutionTime = 61.3 s  ClockTime = 97 s  Iterations: 24.9983/219.993  Projected time to finish: 7.96934 min
Time = 0.000170176


DSMC BC
Number Density of inserted particles: 22720.1
Face Areas: 1(1)
Delta T: 6.54566e-06
MPS: 1(422.076)
Exp term: 1(0.282095)
Face Accumulator: 17.3559
Number of Whole Particles to insert: 17
Number of Whole Particles to insert +extra: 17    Particles inserted              = 17
    Collisions                      = 1008273
    Acceptance rate                 = 0.527043

Cloud name: dsmc
    Number of dsmc particles        = 87483
    Number of molecules             = 3.49932e+22
    Mass in system                  = 0.00162718
    Average linear momentum         = (4.9489e-25 -7.47092e-27 -6.75323e-26)
   |Average linear momentum|        = 4.99532e-25
    Average linear kinetic energy   = 1.58052e-20
    Average internal energy         = 1.04954e-20
    Average total energy            = 2.63006e-20
deltaT = 6.54566e-06
Mean and max Courant Numbers = 0.19686 0.19686
diagonal:  Solving for rho, Initial residual = 0, Final residual = 0, No Iterations 0
diagonal:  Solving for rhoUx, Initial residual = 0, Final residual = 0, No Iterations 0
diagonal:  Solving for rhoE, Initial residual = 0, Final residual = 0, No Iterations 0

ExecutionTime = 63.85 s  ClockTime = 99 s  Iterations: 25.9983/219.993  Projected time to finish: 7.94064 min
Time = 0.000176722


DSMC BC
Number Density of inserted particles: 22720.1
Face Areas: 1(1)
Delta T: 6.54566e-06
MPS: 1(422.076)
Exp term: 1(0.282095)
Face Accumulator: 18.0631
Number of Whole Particles to insert: 18
Number of Whole Particles to insert +extra: 18    Particles inserted              = 18
    Collisions                      = 1008669
    Acceptance rate                 = 0.527067

Cloud name: dsmc
    Number of dsmc particles        = 87471
    Number of molecules             = 3.49884e+22
    Mass in system                  = 0.00162696
    Average linear momentum         = (5.0776e-25 -7.23852e-27 -6.70545e-26)
   |Average linear momentum|        = 5.1222e-25
    Average linear kinetic energy   = 1.57885e-20
    Average internal energy         = 1.05104e-20
    Average total energy            = 2.62988e-20
deltaT = 6.54566e-06
Mean and max Courant Numbers = 0.19686 0.19686
diagonal:  Solving for rho, Initial residual = 0, Final residual = 0, No Iterations 0
diagonal:  Solving for rhoUx, Initial residual = 0, Final residual = 0, No Iterations 0
diagonal:  Solving for rhoE, Initial residual = 0, Final residual = 0, No Iterations 0

ExecutionTime = 66.47 s  ClockTime = 102 s  Iterations: 26.9983/219.993  Projected time to finish: 7.91925 min
Time = 0.000183267


DSMC BC
Number Density of inserted particles: 22720.1
Face Areas: 1(1)
Delta T: 6.54566e-06
MPS: 1(422.076)
Exp term: 1(0.282095)
Face Accumulator: 17.7703
Number of Whole Particles to insert: 17
Number of Whole Particles to insert +extra: 18    Particles inserted              = 18
    Collisions                      = 1006731
    Acceptance rate                 = 0.526018

Cloud name: dsmc
    Number of dsmc particles        = 87454
    Number of molecules             = 3.49816e+22
    Mass in system                  = 0.00162664
    Average linear momentum         = (5.21536e-25 -6.19699e-27 -6.61331e-26)
   |Average linear momentum|        = 5.25749e-25
    Average linear kinetic energy   = 1.58755e-20
    Average internal energy         = 1.042e-20
    Average total energy            = 2.62955e-20
deltaT = 6.54566e-06
Mean and max Courant Numbers = 0.19686 0.19686
diagonal:  Solving for rho, Initial residual = 0, Final residual = 0, No Iterations 0
diagonal:  Solving for rhoUx, Initial residual = 0, Final residual = 0, No Iterations 0
diagonal:  Solving for rhoE, Initial residual = 0, Final residual = 0, No Iterations 0

ExecutionTime = 69.03 s  ClockTime = 105 s  Iterations: 27.9983/219.993  Projected time to finish: 7.88942 min
Time = 0.000189813


DSMC BC
Number Density of inserted particles: 22720.1
Face Areas: 1(1)
Delta T: 6.54566e-06
MPS: 1(422.076)
Exp term: 1(0.282095)
Face Accumulator: 17.4775
Number of Whole Particles to insert: 17
Number of Whole Particles to insert +extra: 17    Particles inserted              = 17
    Collisions                      = 1006119
    Acceptance rate                 = 0.525793

Cloud name: dsmc
    Number of dsmc particles        = 87434
    Number of molecules             = 3.49736e+22
    Mass in system                  = 0.00162627
    Average linear momentum         = (5.34738e-25 -4.6534e-27 -6.47784e-26)
   |Average linear momentum|        = 5.38667e-25
    Average linear kinetic energy   = 1.58006e-20
    Average internal energy         = 1.049e-20
    Average total energy            = 2.62906e-20
deltaT = 6.54566e-06
Mean and max Courant Numbers = 0.19686 0.19686
diagonal:  Solving for rho, Initial residual = 0, Final residual = 0, No Iterations 0
diagonal:  Solving for rhoUx, Initial residual = 0, Final residual = 0, No Iterations 0
diagonal:  Solving for rhoE, Initial residual = 0, Final residual = 0, No Iterations 0

ExecutionTime = 71.66 s  ClockTime = 107 s  Iterations: 28.9983/219.993  Projected time to finish: 7.86638 min
Time = 0.000196358


DSMC BC
Number Density of inserted particles: 22720.1
Face Areas: 1(1)
Delta T: 6.54566e-06
MPS: 1(422.076)
Exp term: 1(0.282095)
Face Accumulator: 18.1846
Number of Whole Particles to insert: 18
Number of Whole Particles to insert +extra: 18    Particles inserted              = 18
    Collisions                      = 1006047
    Acceptance rate                 = 0.525468

Cloud name: dsmc
    Number of dsmc particles        = 87409
    Number of molecules             = 3.49636e+22
    Mass in system                  = 0.00162581
    Average linear momentum         = (5.50878e-25 -3.8248e-27 -6.58032e-26)
   |Average linear momentum|        = 5.54808e-25
    Average linear kinetic energy   = 1.58481e-20
    Average internal energy         = 1.04388e-20
    Average total energy            = 2.62869e-20
deltaT = 6.54566e-06
Mean and max Courant Numbers = 0.19686 0.19686
diagonal:  Solving for rho, Initial residual = 0, Final residual = 0, No Iterations 0
diagonal:  Solving for rhoUx, Initial residual = 0, Final residual = 0, No Iterations 0
diagonal:  Solving for rhoE, Initial residual = 0, Final residual = 0, No Iterations 0

ExecutionTime = 74.27 s  ClockTime = 110 s  Iterations: 29.9983/219.993  Projected time to finish: 7.83985 min
Time = 0.000202904


DSMC BC
Number Density of inserted particles: 22720.1
Face Areas: 1(1)
Delta T: 6.54566e-06
MPS: 1(422.076)
Exp term: 1(0.282095)
Face Accumulator: 17.8918
Number of Whole Particles to insert: 17
Number of Whole Particles to insert +extra: 18    Particles inserted              = 18
    Collisions                      = 1004360
    Acceptance rate                 = 0.524977

Cloud name: dsmc
    Number of dsmc particles        = 87398
    Number of molecules             = 3.49592e+22
    Mass in system                  = 0.0016256
    Average linear momentum         = (5.57969e-25 -4.01281e-27 -6.50577e-26)
   |Average linear momentum|        = 5.61763e-25
    Average linear kinetic energy   = 1.58295e-20
    Average internal energy         = 1.04559e-20
    Average total energy            = 2.62854e-20
deltaT = 6.54566e-06
Mean and max Courant Numbers = 0.19686 0.19686
diagonal:  Solving for rho, Initial residual = 0, Final residual = 0, No Iterations 0
diagonal:  Solving for rhoUx, Initial residual = 0, Final residual = 0, No Iterations 0
diagonal:  Solving for rhoE, Initial residual = 0, Final residual = 0, No Iterations 0

ExecutionTime = 76.77 s  ClockTime = 112 s  Iterations: 30.9983/219.993  Projected time to finish: 7.80104 min
Time = 0.00020945


DSMC BC
Number Density of inserted particles: 22720.1
Face Areas: 1(1)
Delta T: 6.54566e-06
MPS: 1(422.076)
Exp term: 1(0.282095)
Face Accumulator: 17.599
Number of Whole Particles to insert: 17
Number of Whole Particles to insert +extra: 17    Particles inserted              = 17
    Collisions                      = 1003730
    Acceptance rate                 = 0.524824

Cloud name: dsmc
    Number of dsmc particles        = 87380
    Number of molecules             = 3.4952e+22
    Mass in system                  = 0.00162527
    Average linear momentum         = (5.67224e-25 -4.37817e-27 -6.64548e-26)
   |Average linear momentum|        = 5.7112e-25
    Average linear kinetic energy   = 1.57859e-20
    Average internal energy         = 1.04966e-20
    Average total energy            = 2.62824e-20
deltaT = 6.54566e-06
Mean and max Courant Numbers = 0.19686 0.19686
diagonal:  Solving for rho, Initial residual = 0, Final residual = 0, No Iterations 0
diagonal:  Solving for rhoUx, Initial residual = 0, Final residual = 0, No Iterations 0
diagonal:  Solving for rhoE, Initial residual = 0, Final residual = 0, No Iterations 0

ExecutionTime = 79.25 s  ClockTime = 115 s  Iterations: 31.9983/219.993  Projected time to finish: 7.7601 min
Time = 0.000215995


DSMC BC
Number Density of inserted particles: 22720.1
Face Areas: 1(1)
Delta T: 6.54566e-06
MPS: 1(422.076)
Exp term: 1(0.282095)
Face Accumulator: 18.3062
Number of Whole Particles to insert: 18
Number of Whole Particles to insert +extra: 18    Particles inserted              = 18
    Collisions                      = 1001906
    Acceptance rate                 = 0.524151

Cloud name: dsmc
    Number of dsmc particles        = 87353
    Number of molecules             = 3.49412e+22
    Mass in system                  = 0.00162477
    Average linear momentum         = (5.84412e-25 -4.13278e-27 -6.91411e-26)
   |Average linear momentum|        = 5.88502e-25
    Average linear kinetic energy   = 1.58151e-20
    Average internal energy         = 1.04632e-20
    Average total energy            = 2.62783e-20
deltaT = 6.54566e-06
Mean and max Courant Numbers = 0.19686 0.19686
diagonal:  Solving for rho, Initial residual = 0, Final residual = 0, No Iterations 0
diagonal:  Solving for rhoUx, Initial residual = 0, Final residual = 0, No Iterations 0
diagonal:  Solving for rhoE, Initial residual = 0, Final residual = 0, No Iterations 0

ExecutionTime = 81.72 s  ClockTime = 117 s  Iterations: 32.9983/219.993  Projected time to finish: 7.71819 min
Time = 0.000222541


DSMC BC
Number Density of inserted particles: 22720.1
Face Areas: 1(1)
Delta T: 6.54566e-06
MPS: 1(422.076)
Exp term: 1(0.282095)
Face Accumulator: 18.0133
Number of Whole Particles to insert: 18
Number of Whole Particles to insert +extra: 18    Particles inserted              = 18
    Collisions                      = 1002344
    Acceptance rate                 = 0.525062

Cloud name: dsmc
    Number of dsmc particles        = 87325
    Number of molecules             = 3.493e+22
    Mass in system                  = 0.00162425
    Average linear momentum         = (6.0129e-25 -2.22232e-27 -6.75663e-26)
   |Average linear momentum|        = 6.05078e-25
    Average linear kinetic energy   = 1.58088e-20
    Average internal energy         = 1.04668e-20
    Average total energy            = 2.62756e-20
deltaT = 6.54566e-06
Mean and max Courant Numbers = 0.19686 0.19686
diagonal:  Solving for rho, Initial residual = 0, Final residual = 0, No Iterations 0
diagonal:  Solving for rhoUx, Initial residual = 0, Final residual = 0, No Iterations 0
diagonal:  Solving for rhoE, Initial residual = 0, Final residual = 0, No Iterations 0

ExecutionTime = 84.5 s  ClockTime = 120 s  Iterations: 33.9983/219.993  Projected time to finish: 7.70459 min
Time = 0.000229087


DSMC BC
Number Density of inserted particles: 22720.1
Face Areas: 1(1)
Delta T: 6.54566e-06
MPS: 1(422.076)
Exp term: 1(0.282095)
Face Accumulator: 17.7205
Number of Whole Particles to insert: 17
Number of Whole Particles to insert +extra: 18    Particles inserted              = 18
    Collisions                      = 1000793
    Acceptance rate                 = 0.524426

Cloud name: dsmc
    Number of dsmc particles        = 87307
    Number of molecules             = 3.49228e+22
    Mass in system                  = 0.00162391
    Average linear momentum         = (6.13441e-25 -3.82006e-27 -6.50484e-26)
   |Average linear momentum|        = 6.16892e-25
    Average linear kinetic energy   = 1.58332e-20
    Average internal energy         = 1.04403e-20
    Average total energy            = 2.62735e-20
deltaT = 6.54566e-06
Mean and max Courant Numbers = 0.19686 0.19686
diagonal:  Solving for rho, Initial residual = 0, Final residual = 0, No Iterations 0
diagonal:  Solving for rhoUx, Initial residual = 0, Final residual = 0, No Iterations 0
diagonal:  Solving for rhoE, Initial residual = 0, Final residual = 0, No Iterations 0

ExecutionTime = 87.11 s  ClockTime = 123 s  Iterations: 34.9983/219.993  Projected time to finish: 7.67414 min
Time = 0.000235632


DSMC BC
Number Density of inserted particles: 22720.1
Face Areas: 1(1)
Delta T: 6.54566e-06
MPS: 1(422.076)
Exp term: 1(0.282095)
Face Accumulator: 17.4277
Number of Whole Particles to insert: 17
Number of Whole Particles to insert +extra: 17    Particles inserted              = 17
    Collisions                      = 997992
    Acceptance rate                 = 0.523542

Cloud name: dsmc
    Number of dsmc particles        = 87287
    Number of molecules             = 3.49148e+22
    Mass in system                  = 0.00162354
    Average linear momentum         = (6.25687e-25 -2.49352e-27 -6.45469e-26)
   |Average linear momentum|        = 6.29012e-25
    Average linear kinetic energy   = 1.57956e-20
    Average internal energy         = 1.04751e-20
    Average total energy            = 2.62707e-20
deltaT = 6.54566e-06
Mean and max Courant Numbers = 0.19686 0.19686
diagonal:  Solving for rho, Initial residual = 0, Final residual = 0, No Iterations 0
diagonal:  Solving for rhoUx, Initial residual = 0, Final residual = 0, No Iterations 0
diagonal:  Solving for rhoE, Initial residual = 0, Final residual = 0, No Iterations 0

ExecutionTime = 89.65 s  ClockTime = 126 s  Iterations: 35.9983/219.993  Projected time to finish: 7.637 min
Time = 0.000242178


DSMC BC
Number Density of inserted particles: 22720.1
Face Areas: 1(1)
Delta T: 6.54566e-06
MPS: 1(422.076)
Exp term: 1(0.282095)
Face Accumulator: 18.1349
Number of Whole Particles to insert: 18
Number of Whole Particles to insert +extra: 18    Particles inserted              = 18
    Collisions                      = 998831
    Acceptance rate                 = 0.523877

Cloud name: dsmc
    Number of dsmc particles        = 87271
    Number of molecules             = 3.49084e+22
    Mass in system                  = 0.00162324
    Average linear momentum         = (6.3804e-25 3.49514e-28 -6.3579e-26)
   |Average linear momentum|        = 6.412e-25
    Average linear kinetic energy   = 1.57951e-20
    Average internal energy         = 1.04729e-20
    Average total energy            = 2.6268e-20
deltaT = 6.54566e-06
Mean and max Courant Numbers = 0.19686 0.19686
diagonal:  Solving for rho, Initial residual = 0, Final residual = 0, No Iterations 0
diagonal:  Solving for rhoUx, Initial residual = 0, Final residual = 0, No Iterations 0
diagonal:  Solving for rhoE, Initial residual = 0, Final residual = 0, No Iterations 0

ExecutionTime = 92.01 s  ClockTime = 128 s  Iterations: 36.9983/219.993  Projected time to finish: 7.58475 min
Time = 0.000248724


DSMC BC
Number Density of inserted particles: 22720.1
Face Areas: 1(1)
Delta T: 6.54566e-06
MPS: 1(422.076)
Exp term: 1(0.282095)
Face Accumulator: 17.842
Number of Whole Particles to insert: 17
Number of Whole Particles to insert +extra: 18    Particles inserted              = 18
    Collisions                      = 997427
    Acceptance rate                 = 0.523061

Cloud name: dsmc
    Number of dsmc particles        = 87258
    Number of molecules             = 3.49032e+22
    Mass in system                  = 0.001623
    Average linear momentum         = (6.50961e-25 -3.62318e-28 -6.45092e-26)
   |Average linear momentum|        = 6.54149e-25
    Average linear kinetic energy   = 1.58283e-20
    Average internal energy         = 1.04359e-20
    Average total energy            = 2.62642e-20
deltaT = 6.54566e-06
Mean and max Courant Numbers = 0.19686 0.19686
diagonal:  Solving for rho, Initial residual = 0, Final residual = 0, No Iterations 0
diagonal:  Solving for rhoUx, Initial residual = 0, Final residual = 0, No Iterations 0
diagonal:  Solving for rhoE, Initial residual = 0, Final residual = 0, No Iterations 0

ExecutionTime = 94.65 s  ClockTime = 131 s  Iterations: 37.9983/219.993  Projected time to finish: 7.55552 min
Time = 0.000255269


DSMC BC
Number Density of inserted particles: 22720.1
Face Areas: 1(1)
Delta T: 6.54566e-06
MPS: 1(422.076)
Exp term: 1(0.282095)
Face Accumulator: 17.5492
Number of Whole Particles to insert: 17
Number of Whole Particles to insert +extra: 18    Particles inserted              = 18
    Collisions                      = 995255
    Acceptance rate                 = 0.5222

Cloud name: dsmc
    Number of dsmc particles        = 87233
    Number of molecules             = 3.48932e+22
    Mass in system                  = 0.00162253
    Average linear momentum         = (6.66787e-25 -7.41615e-28 -6.60964e-26)
   |Average linear momentum|        = 6.70056e-25
    Average linear kinetic energy   = 1.57697e-20
    Average internal energy         = 1.04915e-20
    Average total energy            = 2.62612e-20
deltaT = 6.54566e-06
Mean and max Courant Numbers = 0.19686 0.19686
diagonal:  Solving for rho, Initial residual = 0, Final residual = 0, No Iterations 0
diagonal:  Solving for rhoUx, Initial residual = 0, Final residual = 0, No Iterations 0
diagonal:  Solving for rhoE, Initial residual = 0, Final residual = 0, No Iterations 0

ExecutionTime = 97.08 s  ClockTime = 133 s  Iterations: 38.9983/219.993  Projected time to finish: 7.5093 min
Time = 0.000261815


DSMC BC
Number Density of inserted particles: 22720.1
Face Areas: 1(1)
Delta T: 6.54566e-06
MPS: 1(422.076)
Exp term: 1(0.282095)
Face Accumulator: 17.2564
Number of Whole Particles to insert: 17
Number of Whole Particles to insert +extra: 17    Particles inserted              = 17
    Collisions                      = 996038
    Acceptance rate                 = 0.522742

Cloud name: dsmc
    Number of dsmc particles        = 87216
    Number of molecules             = 3.48864e+22
    Mass in system                  = 0.00162222
    Average linear momentum         = (6.78529e-25 2.44929e-27 -6.66375e-26)
   |Average linear momentum|        = 6.81798e-25
    Average linear kinetic energy   = 1.57559e-20
    Average internal energy         = 1.05026e-20
    Average total energy            = 2.62585e-20
deltaT = 6.54566e-06
Mean and max Courant Numbers = 0.19686 0.19686
diagonal:  Solving for rho, Initial residual = 0, Final residual = 0, No Iterations 0
diagonal:  Solving for rhoUx, Initial residual = 0, Final residual = 0, No Iterations 0
diagonal:  Solving for rhoE, Initial residual = 0, Final residual = 0, No Iterations 0

ExecutionTime = 99.36 s  ClockTime = 136 s  Iterations: 39.9983/219.993  Projected time to finish: 7.45211 min
Time = 0.000268361


DSMC BC
Number Density of inserted particles: 22720.1
Face Areas: 1(1)
Delta T: 6.54566e-06
MPS: 1(422.076)
Exp term: 1(0.282095)
Face Accumulator: 17.9636
Number of Whole Particles to insert: 17
Number of Whole Particles to insert +extra: 18    Particles inserted              = 18
    Collisions                      = 994368
    Acceptance rate                 = 0.521754

Cloud name: dsmc
    Number of dsmc particles        = 87208
    Number of molecules             = 3.48832e+22
    Mass in system                  = 0.00162207
    Average linear momentum         = (6.8975e-25 1.83169e-27 -6.45667e-26)
   |Average linear momentum|        = 6.92768e-25
    Average linear kinetic energy   = 1.57618e-20
    Average internal energy         = 1.04928e-20
    Average total energy            = 2.62546e-20
deltaT = 6.54566e-06
Mean and max Courant Numbers = 0.19686 0.19686
diagonal:  Solving for rho, Initial residual = 0, Final residual = 0, No Iterations 0
diagonal:  Solving for rhoUx, Initial residual = 0, Final residual = 0, No Iterations 0
diagonal:  Solving for rhoE, Initial residual = 0, Final residual = 0, No Iterations 0

ExecutionTime = 101.81 s  ClockTime = 138 s  Iterations: 40.9983/219.993  Projected time to finish: 7.40822 min
Time = 0.000274906


DSMC BC
Number Density of inserted particles: 22720.1
Face Areas: 1(1)
Delta T: 6.54566e-06
MPS: 1(422.076)
Exp term: 1(0.282095)
Face Accumulator: 17.6707
Number of Whole Particles to insert: 17
Number of Whole Particles to insert +extra: 18    Particles inserted              = 18
    Collisions                      = 994088
    Acceptance rate                 = 0.522252

Cloud name: dsmc
    Number of dsmc particles        = 87178
    Number of molecules             = 3.48712e+22
    Mass in system                  = 0.00162151
    Average linear momentum         = (7.06785e-25 1.96353e-27 -6.25209e-26)
   |Average linear momentum|        = 7.09548e-25
    Average linear kinetic energy   = 1.57946e-20
    Average internal energy         = 1.04555e-20
    Average total energy            = 2.62501e-20
deltaT = 6.54566e-06
Mean and max Courant Numbers = 0.19686 0.19686
diagonal:  Solving for rho, Initial residual = 0, Final residual = 0, No Iterations 0
diagonal:  Solving for rhoUx, Initial residual = 0, Final residual = 0, No Iterations 0
diagonal:  Solving for rhoE, Initial residual = 0, Final residual = 0, No Iterations 0

ExecutionTime = 104.11 s  ClockTime = 140 s  Iterations: 41.9983/219.993  Projected time to finish: 7.35389 min
Time = 0.000281452


DSMC BC
Number Density of inserted particles: 22720.1
Face Areas: 1(1)
Delta T: 6.54566e-06
MPS: 1(422.076)
Exp term: 1(0.282095)
Face Accumulator: 17.3779
Number of Whole Particles to insert: 17
Number of Whole Particles to insert +extra: 18    Particles inserted              = 18
    Collisions                      = 993365
    Acceptance rate                 = 0.5221

Cloud name: dsmc
    Number of dsmc particles        = 87164
    Number of molecules             = 3.48656e+22
    Mass in system                  = 0.00162125
    Average linear momentum         = (7.17225e-25 1.76521e-27 -6.26581e-26)
   |Average linear momentum|        = 7.19959e-25
    Average linear kinetic energy   = 1.58098e-20
    Average internal energy         = 1.04382e-20
    Average total energy            = 2.6248e-20
deltaT = 6.54566e-06
Mean and max Courant Numbers = 0.19686 0.19686
diagonal:  Solving for rho, Initial residual = 0, Final residual = 0, No Iterations 0
diagonal:  Solving for rhoUx, Initial residual = 0, Final residual = 0, No Iterations 0
diagonal:  Solving for rhoE, Initial residual = 0, Final residual = 0, No Iterations 0

ExecutionTime = 106.34 s  ClockTime = 143 s  Iterations: 42.9983/219.993  Projected time to finish: 7.2955 min
Time = 0.000287998


DSMC BC
Number Density of inserted particles: 22720.1
Face Areas: 1(1)
Delta T: 6.54566e-06
MPS: 1(422.076)
Exp term: 1(0.282095)
Face Accumulator: 17.0851
Number of Whole Particles to insert: 17
Number of Whole Particles to insert +extra: 17    Particles inserted              = 17
    Collisions                      = 992860
    Acceptance rate                 = 0.521798

Cloud name: dsmc
    Number of dsmc particles        = 87147
    Number of molecules             = 3.48588e+22
    Mass in system                  = 0.00162093
    Average linear momentum         = (7.28992e-25 1.47789e-27 -6.38772e-26)
   |Average linear momentum|        = 7.31786e-25
    Average linear kinetic energy   = 1.58279e-20
    Average internal energy         = 1.04183e-20
    Average total energy            = 2.62462e-20
deltaT = 6.54566e-06
Mean and max Courant Numbers = 0.19686 0.19686
diagonal:  Solving for rho, Initial residual = 0, Final residual = 0, No Iterations 0
diagonal:  Solving for rhoUx, Initial residual = 0, Final residual = 0, No Iterations 0
diagonal:  Solving for rhoE, Initial residual = 0, Final residual = 0, No Iterations 0

ExecutionTime = 108.72 s  ClockTime = 145 s  Iterations: 43.9983/219.993  Projected time to finish: 7.24807 min
Time = 0.000294543


DSMC BC
Number Density of inserted particles: 22720.1
Face Areas: 1(1)
Delta T: 6.54566e-06
MPS: 1(422.076)
Exp term: 1(0.282095)
Face Accumulator: 17.7923
Number of Whole Particles to insert: 17
Number of Whole Particles to insert +extra: 18    Particles inserted              = 18
    Collisions                      = 992254
    Acceptance rate                 = 0.522114

Cloud name: dsmc
    Number of dsmc particles        = 87120
    Number of molecules             = 3.4848e+22
    Mass in system                  = 0.00162043
    Average linear momentum         = (7.44118e-25 2.21761e-27 -6.3815e-26)
   |Average linear momentum|        = 7.46853e-25
    Average linear kinetic energy   = 1.5838e-20
    Average internal energy         = 1.04055e-20
    Average total energy            = 2.62435e-20
deltaT = 6.54566e-06
Mean and max Courant Numbers = 0.19686 0.19686
diagonal:  Solving for rho, Initial residual = 0, Final residual = 0, No Iterations 0
diagonal:  Solving for rhoUx, Initial residual = 0, Final residual = 0, No Iterations 0
diagonal:  Solving for rhoE, Initial residual = 0, Final residual = 0, No Iterations 0

ExecutionTime = 111.23 s  ClockTime = 148 s  Iterations: 44.9983/219.993  Projected time to finish: 7.20942 min
Time = 0.000301089


DSMC BC
Number Density of inserted particles: 22720.1
Face Areas: 1(1)
Delta T: 6.54566e-06
MPS: 1(422.076)
Exp term: 1(0.282095)
Face Accumulator: 17.4994
Number of Whole Particles to insert: 17
Number of Whole Particles to insert +extra: 17    Particles inserted              = 17
    Collisions                      = 990100
    Acceptance rate                 = 0.521187

Cloud name: dsmc
    Number of dsmc particles        = 87091
    Number of molecules             = 3.48364e+22
    Mass in system                  = 0.00161989
    Average linear momentum         = (7.59637e-25 3.9561e-27 -6.52915e-26)
   |Average linear momentum|        = 7.62448e-25
    Average linear kinetic energy   = 1.58231e-20
    Average internal energy         = 1.04187e-20
    Average total energy            = 2.62418e-20
deltaT = 6.54566e-06
Mean and max Courant Numbers = 0.19686 0.19686
diagonal:  Solving for rho, Initial residual = 0, Final residual = 0, No Iterations 0
diagonal:  Solving for rhoUx, Initial residual = 0, Final residual = 0, No Iterations 0
diagonal:  Solving for rhoE, Initial residual = 0, Final residual = 0, No Iterations 0

ExecutionTime = 113.92 s  ClockTime = 151 s  Iterations: 45.9983/219.993  Projected time to finish: 7.18197 min
Time = 0.000307635


DSMC BC
Number Density of inserted particles: 22720.1
Face Areas: 1(1)
Delta T: 6.54566e-06
MPS: 1(422.076)
Exp term: 1(0.282095)
Face Accumulator: 18.2066
Number of Whole Particles to insert: 18
Number of Whole Particles to insert +extra: 19    Particles inserted              = 19
    Collisions                      = 991112
    Acceptance rate                 = 0.521752

Cloud name: dsmc
    Number of dsmc particles        = 87085
    Number of molecules             = 3.4834e+22
    Mass in system                  = 0.00161978
    Average linear momentum         = (7.68551e-25 3.89121e-27 -6.47451e-26)
   |Average linear momentum|        = 7.71283e-25
    Average linear kinetic energy   = 1.58257e-20
    Average internal energy         = 1.04133e-20
    Average total energy            = 2.62389e-20
deltaT = 6.54566e-06
Mean and max Courant Numbers = 0.19686 0.19686
diagonal:  Solving for rho, Initial residual = 0, Final residual = 0, No Iterations 0
diagonal:  Solving for rhoUx, Initial residual = 0, Final residual = 0, No Iterations 0
diagonal:  Solving for rhoE, Initial residual = 0, Final residual = 0, No Iterations 0

ExecutionTime = 116.26 s  ClockTime = 153 s  Iterations: 46.9983/219.993  Projected time to finish: 7.13231 min
Time = 0.00031418


DSMC BC
Number Density of inserted particles: 22720.1
Face Areas: 1(1)
Delta T: 6.54566e-06
MPS: 1(422.076)
Exp term: 1(0.282095)
Face Accumulator: 16.9138
Number of Whole Particles to insert: 16
Number of Whole Particles to insert +extra: 17    Particles inserted              = 17
    Collisions                      = 988743
    Acceptance rate                 = 0.520959

Cloud name: dsmc
    Number of dsmc particles        = 87069
    Number of molecules             = 3.48276e+22
    Mass in system                  = 0.00161948
    Average linear momentum         = (7.80599e-25 6.12305e-27 -6.69347e-26)
   |Average linear momentum|        = 7.83488e-25
    Average linear kinetic energy   = 1.58418e-20
    Average internal energy         = 1.03928e-20
    Average total energy            = 2.62346e-20
deltaT = 6.54566e-06
Mean and max Courant Numbers = 0.19686 0.19686
diagonal:  Solving for rho, Initial residual = 0, Final residual = 0, No Iterations 0
diagonal:  Solving for rhoUx, Initial residual = 0, Final residual = 0, No Iterations 0
diagonal:  Solving for rhoE, Initial residual = 0, Final residual = 0, No Iterations 0

ExecutionTime = 118.73 s  ClockTime = 155 s  Iterations: 47.9983/219.993  Projected time to finish: 7.09086 min
Time = 0.000320726


DSMC BC
Number Density of inserted particles: 22720.1
Face Areas: 1(1)
Delta T: 6.54566e-06
MPS: 1(422.076)
Exp term: 1(0.282095)
Face Accumulator: 17.621
Number of Whole Particles to insert: 17
Number of Whole Particles to insert +extra: 18    Particles inserted              = 18
    Collisions                      = 988896
    Acceptance rate                 = 0.521062

Cloud name: dsmc
    Number of dsmc particles        = 87049
    Number of molecules             = 3.48196e+22
    Mass in system                  = 0.00161911
    Average linear momentum         = (7.93915e-25 5.86078e-27 -6.57364e-26)
   |Average linear momentum|        = 7.96653e-25
    Average linear kinetic energy   = 1.58144e-20
    Average internal energy         = 1.04167e-20
    Average total energy            = 2.62311e-20
deltaT = 6.54566e-06
Mean and max Courant Numbers = 0.19686 0.19686
diagonal:  Solving for rho, Initial residual = 0, Final residual = 0, No Iterations 0
diagonal:  Solving for rhoUx, Initial residual = 0, Final residual = 0, No Iterations 0
diagonal:  Solving for rhoE, Initial residual = 0, Final residual = 0, No Iterations 0

ExecutionTime = 121.03 s  ClockTime = 158 s  Iterations: 48.9983/219.993  Projected time to finish: 7.03953 min
Time = 0.000327272


DSMC BC
Number Density of inserted particles: 22720.1
Face Areas: 1(1)
Delta T: 6.54566e-06
MPS: 1(422.076)
Exp term: 1(0.282095)
Face Accumulator: 17.3282
Number of Whole Particles to insert: 17
Number of Whole Particles to insert +extra: 17    Particles inserted              = 17
    Collisions                      = 988698
    Acceptance rate                 = 0.521264

Cloud name: dsmc
    Number of dsmc particles        = 87034
    Number of molecules             = 3.48136e+22
    Mass in system                  = 0.00161883
    Average linear momentum         = (8.04535e-25 4.15833e-27 -6.37408e-26)
   |Average linear momentum|        = 8.07067e-25
    Average linear kinetic energy   = 1.578e-20
    Average internal energy         = 1.04485e-20
    Average total energy            = 2.62285e-20
deltaT = 6.54566e-06
Mean and max Courant Numbers = 0.19686 0.19686
diagonal:  Solving for rho, Initial residual = 0, Final residual = 0, No Iterations 0
diagonal:  Solving for rhoUx, Initial residual = 0, Final residual = 0, No Iterations 0
diagonal:  Solving for rhoE, Initial residual = 0, Final residual = 0, No Iterations 0

ExecutionTime = 123.51 s  ClockTime = 160 s  Iterations: 49.9983/219.993  Projected time to finish: 6.99893 min
Time = 0.000333817


DSMC BC
Number Density of inserted particles: 22720.1
Face Areas: 1(1)
Delta T: 6.54566e-06
MPS: 1(422.076)
Exp term: 1(0.282095)
Face Accumulator: 18.0353
Number of Whole Particles to insert: 18
Number of Whole Particles to insert +extra: 19    Particles inserted              = 19
    Collisions                      = 985613
    Acceptance rate                 = 0.520346

Cloud name: dsmc
    Number of dsmc particles        = 87001
    Number of molecules             = 3.48004e+22
    Mass in system                  = 0.00161822
    Average linear momentum         = (8.23624e-25 5.12056e-27 -6.15327e-26)
   |Average linear momentum|        = 8.25936e-25
    Average linear kinetic energy   = 1.57835e-20
    Average internal energy         = 1.04414e-20
    Average total energy            = 2.62249e-20
deltaT = 6.54566e-06
Mean and max Courant Numbers = 0.19686 0.19686
diagonal:  Solving for rho, Initial residual = 0, Final residual = 0, No Iterations 0
diagonal:  Solving for rhoUx, Initial residual = 0, Final residual = 0, No Iterations 0
diagonal:  Solving for rhoE, Initial residual = 0, Final residual = 0, No Iterations 0

ExecutionTime = 125.75 s  ClockTime = 162 s  Iterations: 50.9983/219.993  Projected time to finish: 6.94504 min
Time = 0.000340363


DSMC BC
Number Density of inserted particles: 22720.1
Face Areas: 1(1)
Delta T: 6.54566e-06
MPS: 1(422.076)
Exp term: 1(0.282095)
Face Accumulator: 16.7425
Number of Whole Particles to insert: 16
Number of Whole Particles to insert +extra: 17    Particles inserted              = 17
    Collisions                      = 984439
    Acceptance rate                 = 0.519649

Cloud name: dsmc
    Number of dsmc particles        = 86979
    Number of molecules             = 3.47916e+22
    Mass in system                  = 0.00161781
    Average linear momentum         = (8.39095e-25 4.2703e-27 -6.18967e-26)
   |Average linear momentum|        = 8.41386e-25
    Average linear kinetic energy   = 1.58109e-20
    Average internal energy         = 1.04099e-20
    Average total energy            = 2.62208e-20
deltaT = 6.54566e-06
Mean and max Courant Numbers = 0.19686 0.19686
diagonal:  Solving for rho, Initial residual = 0, Final residual = 0, No Iterations 0
diagonal:  Solving for rhoUx, Initial residual = 0, Final residual = 0, No Iterations 0
diagonal:  Solving for rhoE, Initial residual = 0, Final residual = 0, No Iterations 0

ExecutionTime = 128.17 s  ClockTime = 165 s  Iterations: 51.9983/219.993  Projected time to finish: 6.90148 min
Time = 0.000346909


DSMC BC
Number Density of inserted particles: 22720.1
Face Areas: 1(1)
Delta T: 6.54566e-06
MPS: 1(422.076)
Exp term: 1(0.282095)
Face Accumulator: 17.4497
Number of Whole Particles to insert: 17
Number of Whole Particles to insert +extra: 18    Particles inserted              = 18
    Collisions                      = 984808
    Acceptance rate                 = 0.51996

Cloud name: dsmc
    Number of dsmc particles        = 86965
    Number of molecules             = 3.4786e+22
    Mass in system                  = 0.00161755
    Average linear momentum         = (8.51949e-25 4.02032e-27 -6.15952e-26)
   |Average linear momentum|        = 8.54182e-25
    Average linear kinetic energy   = 1.57745e-20
    Average internal energy         = 1.04432e-20
    Average total energy            = 2.62177e-20
deltaT = 6.54566e-06
Mean and max Courant Numbers = 0.19686 0.19686
diagonal:  Solving for rho, Initial residual = 0, Final residual = 0, No Iterations 0
diagonal:  Solving for rhoUx, Initial residual = 0, Final residual = 0, No Iterations 0
diagonal:  Solving for rhoE, Initial residual = 0, Final residual = 0, No Iterations 0

ExecutionTime = 130.44 s  ClockTime = 167 s  Iterations: 52.9983/219.993  Projected time to finish: 6.85016 min
Time = 0.000353454


DSMC BC
Number Density of inserted particles: 22720.1
Face Areas: 1(1)
Delta T: 6.54566e-06
MPS: 1(422.076)
Exp term: 1(0.282095)
Face Accumulator: 17.1569
Number of Whole Particles to insert: 17
Number of Whole Particles to insert +extra: 17    Particles inserted              = 17
    Collisions                      = 983804
    Acceptance rate                 = 0.519663

Cloud name: dsmc
    Number of dsmc particles        = 86934
    Number of molecules             = 3.47736e+22
    Mass in system                  = 0.00161697
    Average linear momentum         = (8.72486e-25 1.01789e-27 -6.08175e-26)
   |Average linear momentum|        = 8.74604e-25
    Average linear kinetic energy   = 1.57987e-20
    Average internal energy         = 1.04163e-20
    Average total energy            = 2.6215e-20
deltaT = 6.54566e-06
Mean and max Courant Numbers = 0.19686 0.19686
diagonal:  Solving for rho, Initial residual = 0, Final residual = 0, No Iterations 0
diagonal:  Solving for rhoUx, Initial residual = 0, Final residual = 0, No Iterations 0
diagonal:  Solving for rhoE, Initial residual = 0, Final residual = 0, No Iterations 0

ExecutionTime = 132.96 s  ClockTime = 170 s  Iterations: 53.9983/219.993  Projected time to finish: 6.81215 min
Time = 0.00036


DSMC BC
Number Density of inserted particles: 22720.1
Face Areas: 1(1)
Delta T: 6.54566e-06
MPS: 1(422.076)
Exp term: 1(0.282095)
Face Accumulator: 17.864
Number of Whole Particles to insert: 17
Number of Whole Particles to insert +extra: 18    Particles inserted              = 18
    Collisions                      = 983404
    Acceptance rate                 = 0.5191

Cloud name: dsmc
    Number of dsmc particles        = 86923
    Number of molecules             = 3.47692e+22
    Mass in system                  = 0.00161677
    Average linear momentum         = (8.8632e-25 3.34553e-27 -6.09423e-26)
   |Average linear momentum|        = 8.88419e-25
    Average linear kinetic energy   = 1.58381e-20
    Average internal energy         = 1.03737e-20
    Average total energy            = 2.62119e-20
deltaT = 6.54545e-06
Mean and max Courant Numbers = 0.196854 0.196854
diagonal:  Solving for rho, Initial residual = 0, Final residual = 0, No Iterations 0
diagonal:  Solving for rhoUx, Initial residual = 0, Final residual = 0, No Iterations 0
diagonal:  Solving for rhoE, Initial residual = 0, Final residual = 0, No Iterations 0

ExecutionTime = 136.64 s  ClockTime = 173 s  Iterations: 55/220  Projected time to finish: 6.832 min
Time = 0.000366545


DSMC BC
Number Density of inserted particles: 22720.1
Face Areas: 1(1)
Delta T: 6.54545e-06
MPS: 1(422.076)
Exp term: 1(0.282095)
Face Accumulator: 17.5706
Number of Whole Particles to insert: 17
Number of Whole Particles to insert +extra: 17    Particles inserted              = 17
    Collisions                      = 983092
    Acceptance rate                 = 0.519196

Cloud name: dsmc
    Number of dsmc particles        = 86898
    Number of molecules             = 3.47592e+22
    Mass in system                  = 0.0016163
    Average linear momentum         = (9.0213e-25 6.42563e-27 -6.15548e-26)
   |Average linear momentum|        = 9.0425e-25
    Average linear kinetic energy   = 1.57919e-20
    Average internal energy         = 1.04178e-20
    Average total energy            = 2.62097e-20
deltaT = 6.54545e-06
Mean and max Courant Numbers = 0.196854 0.196854
diagonal:  Solving for rho, Initial residual = 0, Final residual = 0, No Iterations 0
diagonal:  Solving for rhoUx, Initial residual = 0, Final residual = 0, No Iterations 0
diagonal:  Solving for rhoE, Initial residual = 0, Final residual = 0, No Iterations 0

ExecutionTime = 139.08 s  ClockTime = 176 s  Iterations: 56/220  Projected time to finish: 6.78843 min
Time = 0.000373091


DSMC BC
Number Density of inserted particles: 22720.1
Face Areas: 1(1)
Delta T: 6.54545e-06
MPS: 1(422.076)
Exp term: 1(0.282095)
Face Accumulator: 18.2773
Number of Whole Particles to insert: 18
Number of Whole Particles to insert +extra: 18    Particles inserted              = 18
    Collisions                      = 980627
    Acceptance rate                 = 0.518723

Cloud name: dsmc
    Number of dsmc particles        = 86870
    Number of molecules             = 3.4748e+22
    Mass in system                  = 0.00161578
    Average linear momentum         = (9.18956e-25 4.14207e-27 -5.77371e-26)
   |Average linear momentum|        = 9.20777e-25
    Average linear kinetic energy   = 1.58161e-20
    Average internal energy         = 1.0391e-20
    Average total energy            = 2.6207e-20
deltaT = 6.54545e-06
Mean and max Courant Numbers = 0.196854 0.196854
diagonal:  Solving for rho, Initial residual = 0, Final residual = 0, No Iterations 0
diagonal:  Solving for rhoUx, Initial residual = 0, Final residual = 0, No Iterations 0
diagonal:  Solving for rhoE, Initial residual = 0, Final residual = 0, No Iterations 0

ExecutionTime = 141.37 s  ClockTime = 178 s  Iterations: 57/220  Projected time to finish: 6.73781 min
Time = 0.000379636


DSMC BC
Number Density of inserted particles: 22720.1
Face Areas: 1(1)
Delta T: 6.54545e-06
MPS: 1(422.076)
Exp term: 1(0.282095)
Face Accumulator: 17.9839
Number of Whole Particles to insert: 17
Number of Whole Particles to insert +extra: 18    Particles inserted              = 18
    Collisions                      = 980218
    Acceptance rate                 = 0.518779

Cloud name: dsmc
    Number of dsmc particles        = 86840
    Number of molecules             = 3.4736e+22
    Mass in system                  = 0.00161522
    Average linear momentum         = (9.35231e-25 4.88497e-27 -5.86664e-26)
   |Average linear momentum|        = 9.37082e-25
    Average linear kinetic energy   = 1.58338e-20
    Average internal energy         = 1.03712e-20
    Average total energy            = 2.6205e-20
deltaT = 6.54545e-06
Mean and max Courant Numbers = 0.196854 0.196854
diagonal:  Solving for rho, Initial residual = 0, Final residual = 0, No Iterations 0
diagonal:  Solving for rhoUx, Initial residual = 0, Final residual = 0, No Iterations 0
diagonal:  Solving for rhoE, Initial residual = 0, Final residual = 0, No Iterations 0

ExecutionTime = 143.82 s  ClockTime = 181 s  Iterations: 58/220  Projected time to finish: 6.69507 min
Time = 0.000386182


DSMC BC
Number Density of inserted particles: 22720.1
Face Areas: 1(1)
Delta T: 6.54545e-06
MPS: 1(422.076)
Exp term: 1(0.282095)
Face Accumulator: 17.6905
Number of Whole Particles to insert: 17
Number of Whole Particles to insert +extra: 18    Particles inserted              = 18
    Collisions                      = 978276
    Acceptance rate                 = 0.51805

Cloud name: dsmc
    Number of dsmc particles        = 86819
    Number of molecules             = 3.47276e+22
    Mass in system                  = 0.00161483
    Average linear momentum         = (9.49043e-25 5.47698e-27 -6.08359e-26)
   |Average linear momentum|        = 9.51007e-25
    Average linear kinetic energy   = 1.58652e-20
    Average internal energy         = 1.03353e-20
    Average total energy            = 2.62005e-20
deltaT = 6.54545e-06
Mean and max Courant Numbers = 0.196854 0.196854
diagonal:  Solving for rho, Initial residual = 0, Final residual = 0, No Iterations 0
diagonal:  Solving for rhoUx, Initial residual = 0, Final residual = 0, No Iterations 0
diagonal:  Solving for rhoE, Initial residual = 0, Final residual = 0, No Iterations 0

ExecutionTime = 146.03 s  ClockTime = 183 s  Iterations: 59/220  Projected time to finish: 6.64148 min
Time = 0.000392727


DSMC BC
Number Density of inserted particles: 22720.1
Face Areas: 1(1)
Delta T: 6.54545e-06
MPS: 1(422.076)
Exp term: 1(0.282095)
Face Accumulator: 17.3971
Number of Whole Particles to insert: 17
Number of Whole Particles to insert +extra: 17    Particles inserted              = 17
    Collisions                      = 978938
    Acceptance rate                 = 0.518796

Cloud name: dsmc
    Number of dsmc particles        = 86798
    Number of molecules             = 3.47192e+22
    Mass in system                  = 0.00161444
    Average linear momentum         = (9.63845e-25 5.74148e-27 -6.20144e-26)
   |Average linear momentum|        = 9.65855e-25
    Average linear kinetic energy   = 1.57947e-20
    Average internal energy         = 1.04037e-20
    Average total energy            = 2.61985e-20
deltaT = 6.54545e-06
Mean and max Courant Numbers = 0.196854 0.196854
diagonal:  Solving for rho, Initial residual = 0, Final residual = 0, No Iterations 0
diagonal:  Solving for rhoUx, Initial residual = 0, Final residual = 0, No Iterations 0
diagonal:  Solving for rhoE, Initial residual = 0, Final residual = 0, No Iterations 0

ExecutionTime = 148.41 s  ClockTime = 185 s  Iterations: 60/220  Projected time to finish: 6.596 min
Time = 0.000399273


DSMC BC
Number Density of inserted particles: 22720.1
[...]
    Collisions                      = 854244
    Acceptance rate                 = 0.506229

Cloud name: dsmc
    Number of dsmc particles        = 83932
    Number of molecules             = 3.35728e+22
    Mass in system                  = 0.00156114
    Average linear momentum         = (3.06125e-24 1.81514e-26 -7.89874e-26)
   |Average linear momentum|        = 3.06232e-24
    Average linear kinetic energy   = 1.5696e-20
    Average internal energy         = 1.00424e-20
    Average total energy            = 2.57384e-20
deltaT = 6.54545e-06
Mean and max Courant Numbers = 0.196854 0.196854
diagonal:  Solving for rho, Initial residual = 0, Final residual = 0, No Iterations 0
diagonal:  Solving for rhoUx, Initial residual = 0, Final residual = 0, No Iterations 0
diagonal:  Solving for rhoE, Initial residual = 0, Final residual = 0, No Iterations 0

ExecutionTime = 475.09 s  ClockTime = 516 s  Iterations: 205/220  Projected time to finish: 0.579378 min
Time = 0.00134836


DSMC BC
Number Density of inserted particles: 22720.1
Face Areas: 1(1)
Delta T: 6.54545e-06
MPS: 1(422.076)
Exp term: 1(0.282095)
Face Accumulator: 17.5634
Number of Whole Particles to insert: 17
Number of Whole Particles to insert +extra: 17    Particles inserted              = 17
    Collisions                      = 853910
    Acceptance rate                 = 0.506239

Cloud name: dsmc
    Number of dsmc particles        = 83914
    Number of molecules             = 3.35656e+22
    Mass in system                  = 0.0015608
    Average linear momentum         = (3.07397e-24 1.6479e-26 -7.72646e-26)
   |Average linear momentum|        = 3.07499e-24
    Average linear kinetic energy   = 1.58057e-20
    Average internal energy         = 9.93072e-21
    Average total energy            = 2.57364e-20
deltaT = 6.54545e-06
Mean and max Courant Numbers = 0.196854 0.196854
diagonal:  Solving for rho, Initial residual = 0, Final residual = 0, No Iterations 0
diagonal:  Solving for rhoUx, Initial residual = 0, Final residual = 0, No Iterations 0
diagonal:  Solving for rhoE, Initial residual = 0, Final residual = 0, No Iterations 0

ExecutionTime = 477.19 s  ClockTime = 518 s  Iterations: 206/220  Projected time to finish: 0.540506 min
Time = 0.00135491


DSMC BC
Number Density of inserted particles: 22720.1
Face Areas: 1(1)
Delta T: 6.54545e-06
MPS: 1(422.076)
Exp term: 1(0.282095)
Face Accumulator: 18.2701
Number of Whole Particles to insert: 18
Number of Whole Particles to insert +extra: 19    Particles inserted              = 19
    Collisions                      = 851667
    Acceptance rate                 = 0.505704

Cloud name: dsmc
    Number of dsmc particles        = 83894
    Number of molecules             = 3.35576e+22
    Mass in system                  = 0.00156043
    Average linear momentum         = (3.09076e-24 1.61919e-26 -7.6057e-26)
   |Average linear momentum|        = 3.09174e-24
    Average linear kinetic energy   = 1.57681e-20
    Average internal energy         = 9.96373e-21
    Average total energy            = 2.57318e-20
deltaT = 6.54545e-06
Mean and max Courant Numbers = 0.196854 0.196854
diagonal:  Solving for rho, Initial residual = 0, Final residual = 0, No Iterations 0
diagonal:  Solving for rhoUx, Initial residual = 0, Final residual = 0, No Iterations 0
diagonal:  Solving for rhoE, Initial residual = 0, Final residual = 0, No Iterations 0

ExecutionTime = 479.41 s  ClockTime = 521 s  Iterations: 207/220  Projected time to finish: 0.501798 min
Time = 0.00136145


DSMC BC
Number Density of inserted particles: 22720.1
Face Areas: 1(1)
Delta T: 6.54545e-06
MPS: 1(422.076)
Exp term: 1(0.282095)
Face Accumulator: 16.9767
Number of Whole Particles to insert: 16
Number of Whole Particles to insert +extra: 17    Particles inserted              = 17
    Collisions                      = 850327
    Acceptance rate                 = 0.505375

Cloud name: dsmc
    Number of dsmc particles        = 83873
    Number of molecules             = 3.35492e+22
    Mass in system                  = 0.00156004
    Average linear momentum         = (3.10287e-24 1.54685e-26 -7.81723e-26)
   |Average linear momentum|        = 3.10389e-24
    Average linear kinetic energy   = 1.58076e-20
    Average internal energy         = 9.92245e-21
    Average total energy            = 2.57301e-20
deltaT = 6.54545e-06
Mean and max Courant Numbers = 0.196854 0.196854
diagonal:  Solving for rho, Initial residual = 0, Final residual = 0, No Iterations 0
diagonal:  Solving for rhoUx, Initial residual = 0, Final residual = 0, No Iterations 0
diagonal:  Solving for rhoE, Initial residual = 0, Final residual = 0, No Iterations 0

ExecutionTime = 481.52 s  ClockTime = 523 s  Iterations: 208/220  Projected time to finish: 0.463 min
Time = 0.001368


DSMC BC
Number Density of inserted particles: 22720.1
Face Areas: 1(1)
Delta T: 6.54545e-06
MPS: 1(422.076)
Exp term: 1(0.282095)
Face Accumulator: 17.6833
Number of Whole Particles to insert: 17
Number of Whole Particles to insert +extra: 18    Particles inserted              = 18
    Collisions                      = 848834
    Acceptance rate                 = 0.505045

Cloud name: dsmc
    Number of dsmc particles        = 83838
    Number of molecules             = 3.35352e+22
    Mass in system                  = 0.00155939
    Average linear momentum         = (3.12407e-24 1.59855e-26 -7.94522e-26)
   |Average linear momentum|        = 3.12512e-24
    Average linear kinetic energy   = 1.57472e-20
    Average internal energy         = 9.97944e-21
    Average total energy            = 2.57266e-20
deltaT = 6.54545e-06
Mean and max Courant Numbers = 0.196854 0.196854
diagonal:  Solving for rho, Initial residual = 0, Final residual = 0, No Iterations 0
diagonal:  Solving for rhoUx, Initial residual = 0, Final residual = 0, No Iterations 0
diagonal:  Solving for rhoE, Initial residual = 0, Final residual = 0, No Iterations 0

ExecutionTime = 483.69 s  ClockTime = 525 s  Iterations: 209/220  Projected time to finish: 0.424289 min
Time = 0.00137455


DSMC BC
Number Density of inserted particles: 22720.1
Face Areas: 1(1)
Delta T: 6.54545e-06
MPS: 1(422.076)
Exp term: 1(0.282095)
Face Accumulator: 17.3899
Number of Whole Particles to insert: 17
Number of Whole Particles to insert +extra: 17    Particles inserted              = 17
    Collisions                      = 849295
    Acceptance rate                 = 0.505647

Cloud name: dsmc
    Number of dsmc particles        = 83827
    Number of molecules             = 3.35308e+22
    Mass in system                  = 0.00155918
    Average linear momentum         = (3.13487e-24 1.61322e-26 -7.7633e-26)
   |Average linear momentum|        = 3.13587e-24
    Average linear kinetic energy   = 1.57965e-20
    Average internal energy         = 9.92691e-21
    Average total energy            = 2.57234e-20
deltaT = 6.54545e-06
Mean and max Courant Numbers = 0.196854 0.196854
diagonal:  Solving for rho, Initial residual = 0, Final residual = 0, No Iterations 0
diagonal:  Solving for rhoUx, Initial residual = 0, Final residual = 0, No Iterations 0
diagonal:  Solving for rhoE, Initial residual = 0, Final residual = 0, No Iterations 0

ExecutionTime = 485.79 s  ClockTime = 527 s  Iterations: 210/220  Projected time to finish: 0.385548 min
Time = 0.00138109


DSMC BC
Number Density of inserted particles: 22720.1
Face Areas: 1(1)
Delta T: 6.54545e-06
MPS: 1(422.076)
Exp term: 1(0.282095)
Face Accumulator: 18.0965
Number of Whole Particles to insert: 18
Number of Whole Particles to insert +extra: 18    Particles inserted              = 18
    Collisions                      = 848878
    Acceptance rate                 = 0.505807

Cloud name: dsmc
    Number of dsmc particles        = 83806
    Number of molecules             = 3.35224e+22
    Mass in system                  = 0.00155879
    Average linear momentum         = (3.14784e-24 1.907e-26 -8.00882e-26)
   |Average linear momentum|        = 3.14892e-24
    Average linear kinetic energy   = 1.58315e-20
    Average internal energy         = 9.88804e-21
    Average total energy            = 2.57195e-20
deltaT = 6.54545e-06
Mean and max Courant Numbers = 0.196854 0.196854
diagonal:  Solving for rho, Initial residual = 0, Final residual = 0, No Iterations 0
diagonal:  Solving for rhoUx, Initial residual = 0, Final residual = 0, No Iterations 0
diagonal:  Solving for rhoE, Initial residual = 0, Final residual = 0, No Iterations 0

ExecutionTime = 487.94 s  ClockTime = 529 s  Iterations: 211/220  Projected time to finish: 0.346877 min
Time = 0.00138764


DSMC BC
Number Density of inserted particles: 22720.1
Face Areas: 1(1)
Delta T: 6.54545e-06
MPS: 1(422.076)
Exp term: 1(0.282095)
Face Accumulator: 17.8032
Number of Whole Particles to insert: 17
Number of Whole Particles to insert +extra: 18    Particles inserted              = 18
    Collisions                      = 848056
    Acceptance rate                 = 0.5057

Cloud name: dsmc
    Number of dsmc particles        = 83779
    Number of molecules             = 3.35116e+22
    Mass in system                  = 0.00155829
    Average linear momentum         = (3.16663e-24 1.9638e-26 -7.79352e-26)
   |Average linear momentum|        = 3.16765e-24
    Average linear kinetic energy   = 1.57626e-20
    Average internal energy         = 9.95532e-21
    Average total energy            = 2.57179e-20
deltaT = 6.54545e-06
Mean and max Courant Numbers = 0.196854 0.196854
diagonal:  Solving for rho, Initial residual = 0, Final residual = 0, No Iterations 0
diagonal:  Solving for rhoUx, Initial residual = 0, Final residual = 0, No Iterations 0
diagonal:  Solving for rhoE, Initial residual = 0, Final residual = 0, No Iterations 0

ExecutionTime = 489.94 s  ClockTime = 531 s  Iterations: 212/220  Projected time to finish: 0.308138 min
Time = 0.00139418


DSMC BC
Number Density of inserted particles: 22720.1
Face Areas: 1(1)
Delta T: 6.54545e-06
MPS: 1(422.076)
Exp term: 1(0.282095)
Face Accumulator: 17.5098
Number of Whole Particles to insert: 17
Number of Whole Particles to insert +extra: 18    Particles inserted              = 18
    Collisions                      = 846714
    Acceptance rate                 = 0.50523

Cloud name: dsmc
    Number of dsmc particles        = 83769
    Number of molecules             = 3.35076e+22
    Mass in system                  = 0.0015581
    Average linear momentum         = (3.1778e-24 2.00752e-26 -7.87327e-26)
   |Average linear momentum|        = 3.17883e-24
    Average linear kinetic energy   = 1.57706e-20
    Average internal energy         = 9.94344e-21
    Average total energy            = 2.5714e-20
deltaT = 6.54545e-06
Mean and max Courant Numbers = 0.196854 0.196854
diagonal:  Solving for rho, Initial residual = 0, Final residual = 0, No Iterations 0
diagonal:  Solving for rhoUx, Initial residual = 0, Final residual = 0, No Iterations 0
diagonal:  Solving for rhoE, Initial residual = 0, Final residual = 0, No Iterations 0

ExecutionTime = 492.08 s  ClockTime = 534 s  Iterations: 213/220  Projected time to finish: 0.269527 min
Time = 0.00140073


DSMC BC
Number Density of inserted particles: 22720.1
Face Areas: 1(1)
Delta T: 6.54545e-06
MPS: 1(422.076)
Exp term: 1(0.282095)
Face Accumulator: 17.2164
Number of Whole Particles to insert: 17
Number of Whole Particles to insert +extra: 17    Particles inserted              = 17
    Collisions                      = 847689
    Acceptance rate                 = 0.506123

Cloud name: dsmc
    Number of dsmc particles        = 83751
    Number of molecules             = 3.35004e+22
    Mass in system                  = 0.00155777
    Average linear momentum         = (3.19252e-24 2.09894e-26 -7.82646e-26)
   |Average linear momentum|        = 3.19355e-24
    Average linear kinetic energy   = 1.57897e-20
    Average internal energy         = 9.92041e-21
    Average total energy            = 2.57102e-20
deltaT = 6.54545e-06
Mean and max Courant Numbers = 0.196854 0.196854
diagonal:  Solving for rho, Initial residual = 0, Final residual = 0, No Iterations 0
diagonal:  Solving for rhoUx, Initial residual = 0, Final residual = 0, No Iterations 0
diagonal:  Solving for rhoE, Initial residual = 0, Final residual = 0, No Iterations 0

ExecutionTime = 494.45 s  ClockTime = 536 s  Iterations: 214/220  Projected time to finish: 0.231051 min
Time = 0.00140727


DSMC BC
Number Density of inserted particles: 22720.1
Face Areas: 1(1)
Delta T: 6.54545e-06
MPS: 1(422.076)
Exp term: 1(0.282095)
Face Accumulator: 17.923
Number of Whole Particles to insert: 17
Number of Whole Particles to insert +extra: 18    Particles inserted              = 18
    Collisions                      = 846368
    Acceptance rate                 = 0.505932

Cloud name: dsmc
    Number of dsmc particles        = 83725
    Number of molecules             = 3.349e+22
    Mass in system                  = 0.00155729
    Average linear momentum         = (3.21143e-24 2.13964e-26 -7.72495e-26)
   |Average linear momentum|        = 3.21243e-24
    Average linear kinetic energy   = 1.5773e-20
    Average internal energy         = 9.93278e-21
    Average total energy            = 2.57058e-20
deltaT = 6.54545e-06
Mean and max Courant Numbers = 0.196854 0.196854
diagonal:  Solving for rho, Initial residual = 0, Final residual = 0, No Iterations 0
diagonal:  Solving for rhoUx, Initial residual = 0, Final residual = 0, No Iterations 0
diagonal:  Solving for rhoE, Initial residual = 0, Final residual = 0, No Iterations 0

ExecutionTime = 496.48 s  ClockTime = 538 s  Iterations: 215/220  Projected time to finish: 0.192434 min
Time = 0.00141382


DSMC BC
Number Density of inserted particles: 22720.1
Face Areas: 1(1)
Delta T: 6.54545e-06
MPS: 1(422.076)
Exp term: 1(0.282095)
Face Accumulator: 17.6296
Number of Whole Particles to insert: 17
Number of Whole Particles to insert +extra: 17    Particles inserted              = 17
    Collisions                      = 843778
    Acceptance rate                 = 0.505237

Cloud name: dsmc
    Number of dsmc particles        = 83698
    Number of molecules             = 3.34792e+22
    Mass in system                  = 0.00155678
    Average linear momentum         = (3.23234e-24 2.28904e-26 -7.86166e-26)
   |Average linear momentum|        = 3.23338e-24
    Average linear kinetic energy   = 1.57512e-20
    Average internal energy         = 9.94689e-21
    Average total energy            = 2.56981e-20
deltaT = 6.54545e-06
Mean and max Courant Numbers = 0.196854 0.196854
diagonal:  Solving for rho, Initial residual = 0, Final residual = 0, No Iterations 0
diagonal:  Solving for rhoUx, Initial residual = 0, Final residual = 0, No Iterations 0
diagonal:  Solving for rhoE, Initial residual = 0, Final residual = 0, No Iterations 0

ExecutionTime = 498.53 s  ClockTime = 540 s  Iterations: 216/220  Projected time to finish: 0.153867 min
Time = 0.00142036


DSMC BC
Number Density of inserted particles: 22720.1
Face Areas: 1(1)
Delta T: 6.54545e-06
MPS: 1(422.076)
Exp term: 1(0.282095)
Face Accumulator: 18.3363
Number of Whole Particles to insert: 18
Number of Whole Particles to insert +extra: 18    Particles inserted              = 18
    Collisions                      = 843134
    Acceptance rate                 = 0.505291

Cloud name: dsmc
    Number of dsmc particles        = 83669
    Number of molecules             = 3.34676e+22
    Mass in system                  = 0.00155624
    Average linear momentum         = (3.25309e-24 2.14475e-26 -7.6197e-26)
   |Average linear momentum|        = 3.25405e-24
    Average linear kinetic energy   = 1.57983e-20
    Average internal energy         = 9.89639e-21
    Average total energy            = 2.56947e-20
deltaT = 6.54545e-06
Mean and max Courant Numbers = 0.196854 0.196854
diagonal:  Solving for rho, Initial residual = 0, Final residual = 0, No Iterations 0
diagonal:  Solving for rhoUx, Initial residual = 0, Final residual = 0, No Iterations 0
diagonal:  Solving for rhoE, Initial residual = 0, Final residual = 0, No Iterations 0

ExecutionTime = 500.45 s  ClockTime = 542 s  Iterations: 217/220  Projected time to finish: 0.115311 min
Time = 0.00142691


DSMC BC
Number Density of inserted particles: 22720.1
Face Areas: 1(1)
Delta T: 6.54545e-06
MPS: 1(422.076)
Exp term: 1(0.282095)
Face Accumulator: 18.0429
Number of Whole Particles to insert: 18
Number of Whole Particles to insert +extra: 18    Particles inserted              = 18
    Collisions                      = 841339
    Acceptance rate                 = 0.505109

Cloud name: dsmc
    Number of dsmc particles        = 83646
    Number of molecules             = 3.34584e+22
    Mass in system                  = 0.00155582
    Average linear momentum         = (3.26873e-24 2.13819e-26 -7.7197e-26)
   |Average linear momentum|        = 3.26971e-24
    Average linear kinetic energy   = 1.58161e-20
    Average internal energy         = 9.87546e-21
    Average total energy            = 2.56916e-20
deltaT = 6.54545e-06
Mean and max Courant Numbers = 0.196854 0.196854
diagonal:  Solving for rho, Initial residual = 0, Final residual = 0, No Iterations 0
diagonal:  Solving for rhoUx, Initial residual = 0, Final residual = 0, No Iterations 0
diagonal:  Solving for rhoE, Initial residual = 0, Final residual = 0, No Iterations 0

ExecutionTime = 502.67 s  ClockTime = 545 s  Iterations: 218/220  Projected time to finish: 0.0768609 min
Time = 0.00143345


DSMC BC
Number Density of inserted particles: 22720.1
Face Areas: 1(1)
Delta T: 6.54545e-06
MPS: 1(422.076)
Exp term: 1(0.282095)
Face Accumulator: 17.7495
Number of Whole Particles to insert: 17
Number of Whole Particles to insert +extra: 18    Particles inserted              = 18
    Collisions                      = 841013
    Acceptance rate                 = 0.50545

Cloud name: dsmc
    Number of dsmc particles        = 83625
    Number of molecules             = 3.345e+22
    Mass in system                  = 0.00155543
    Average linear momentum         = (3.28156e-24 2.06494e-26 -7.64809e-26)
   |Average linear momentum|        = 3.28252e-24
    Average linear kinetic energy   = 1.57589e-20
    Average internal energy         = 9.93008e-21
    Average total energy            = 2.5689e-20
deltaT = 6.54545e-06
Mean and max Courant Numbers = 0.196854 0.196854
diagonal:  Solving for rho, Initial residual = 0, Final residual = 0, No Iterations 0
diagonal:  Solving for rhoUx, Initial residual = 0, Final residual = 0, No Iterations 0
diagonal:  Solving for rhoE, Initial residual = 0, Final residual = 0, No Iterations 0

ExecutionTime = 504.8 s  ClockTime = 547 s  Iterations: 219/220  Projected time to finish: 0.038417 min
Time = 0.00144


DSMC BC
Number Density of inserted particles: 22720.1
Face Areas: 1(1)
Delta T: 6.54545e-06
MPS: 1(422.076)
Exp term: 1(0.282095)
Face Accumulator: 17.4561
Number of Whole Particles to insert: 17
Number of Whole Particles to insert +extra: 18    Particles inserted              = 18
    Collisions                      = 839832
    Acceptance rate                 = 0.505155

Cloud name: dsmc
    Number of dsmc particles        = 83612
    Number of molecules             = 3.34448e+22
    Mass in system                  = 0.00155518
    Average linear momentum         = (3.29415e-24 1.96635e-26 -7.4716e-26)
   |Average linear momentum|        = 3.29506e-24
    Average linear kinetic energy   = 1.57586e-20
    Average internal energy         = 9.92733e-21
    Average total energy            = 2.5686e-20
deltaT = 6.54545e-06
Mean and max Courant Numbers = 0.196854 0.196854
diagonal:  Solving for rho, Initial residual = 0, Final residual = 0, No Iterations 0
diagonal:  Solving for rhoUx, Initial residual = 0, Final residual = 0, No Iterations 0
diagonal:  Solving for rhoE, Initial residual = 0, Final residual = 0, No Iterations 0

ExecutionTime = 508.32 s  ClockTime = 550 s  Iterations: 220/220  Projected time to finish: 0 min
