/*---------------------------------------------------------------------------*\
  =========                 |
  \\      /  F ield         | OpenFOAM: The Open Source CFD Toolbox
   \\    /   O peration     | Website:  https://openfoam.org
    \\  /    A nd           | Version:  7
     \\/     M anipulation  |
\*---------------------------------------------------------------------------*/
Build  : 7-1ff648926f77
Exec   : Hybrid
Date   : May 23 2020
Time   : 20:42:03
Host   : "DESKTOP-KF81SG4"
PID    : 25126
I/O    : uncollated
Case   : /home/anthonygay1812/OpenFOAM/Working/finalShockTube
nProcs : 1
sigFpe : Enabling floating point exception trapping (FOAM_SIGFPE).
fileModificationChecking : Monitoring run-time modified files using timeStampMaster (fileModificationSkew 10)
allowSystemOperations : Allowing user-supplied system call operations

// * * * * * * * * * * * * * * * * * * * * * * * * * * * * * * * * * * * * * //
Create time

Create mesh for time = 0

Create mesh for time = 0

Meshes created
Reading thermophysical properties

Selecting thermodynamics package 
{
    type            hePsiThermo;
    mixture         pureMixture;
    transport       const;
    thermo          hConst;
    equationOfState perfectGas;
    specie          specie;
    energy          sensibleInternalEnergy;
}

Using dynamicCode for patch fluidBound on field p at line 19 in "/home/anthonygay1812/OpenFOAM/Working/finalShockTube/system/fluid/codeDict.HPCFluid"
Creating new library in "dynamicCode/HPCFluid/platforms/linux64GccDPInt32Opt/lib/libHPCFluid_1fa769f6eac03e9ae4d05c6680b6889c46fbe409.so"
Invoking "wmake -s libso /home/anthonygay1812/OpenFOAM/Working/finalShockTube/dynamicCode/HPCFluid"
wmake libso /home/anthonygay1812/OpenFOAM/Working/finalShockTube/dynamicCode/HPCFluid
    ln: ./lnInclude
    wmkdep: fixedValueFvPatchFieldTemplate.C
    Ctoo: fixedValueFvPatchFieldTemplate.C
    ld: /home/anthonygay1812/OpenFOAM/Working/finalShockTube/dynamicCode/HPCFluid/../platforms/linux64GccDPInt32Opt/lib/libHPCFluid_1fa769f6eac03e9ae4d05c6680b6889c46fbe409.so
Reading field U

Creating turbulence model

Selecting turbulence model type laminar
Selecting laminar stress model Stokes
fluxScheme: Kurganov
Initialising dsmc for Time = 0


Constructing constant properties for
    N2

Initialising particles

Knudsen:17597.9
Particle regime for cells 0 to 300

Knudsen:60659.6
Particle regime for cells 300 to 600

Total number of molecules added: 87951


ClockTime = 14 s


Constructing dsmcCloud 
Using dynamicCode for patch DSMCBound on field boundaryT at line 19 in "/home/anthonygay1812/OpenFOAM/Working/finalShockTube/system/particle/codeDict.HPCParticleT"
Creating new library in "dynamicCode/HPCParticleT/platforms/linux64GccDPInt32Opt/lib/libHPCParticleT_a2570c262a7ca3cc64dc83e4a59773ff3314141d.so"
Invoking "wmake -s libso /home/anthonygay1812/OpenFOAM/Working/finalShockTube/dynamicCode/HPCParticleT"
wmake libso /home/anthonygay1812/OpenFOAM/Working/finalShockTube/dynamicCode/HPCParticleT
    ln: ./lnInclude
    wmkdep: fixedValueFvPatchFieldTemplate.C
    Ctoo: fixedValueFvPatchFieldTemplate.C
    ld: /home/anthonygay1812/OpenFOAM/Working/finalShockTube/dynamicCode/HPCParticleT/../platforms/linux64GccDPInt32Opt/lib/libHPCParticleT_a2570c262a7ca3cc64dc83e4a59773ff3314141d.so
Using dynamicCode for patch DSMCBound on field boundaryU at line 33 in "/home/anthonygay1812/OpenFOAM/Working/finalShockTube/system/particle/codeDict.HPCParticleU"
Creating new library in "dynamicCode/HPCParticleU/platforms/linux64GccDPInt32Opt/lib/libHPCParticleU_c0c1df44077aa953c6492f7b754ad635ca036720.so"
Invoking "wmake -s libso /home/anthonygay1812/OpenFOAM/Working/finalShockTube/dynamicCode/HPCParticleU"
wmake libso /home/anthonygay1812/OpenFOAM/Working/finalShockTube/dynamicCode/HPCParticleU
    ln: ./lnInclude
    wmkdep: fixedValueFvPatchFieldTemplate.C
    Ctoo: fixedValueFvPatchFieldTemplate.C
    ld: /home/anthonygay1812/OpenFOAM/Working/finalShockTube/dynamicCode/HPCParticleU/../platforms/linux64GccDPInt32Opt/lib/libHPCParticleU_c0c1df44077aa953c6492f7b754ad635ca036720.so
Selecting BinaryCollisionModel LarsenBorgnakkeVariableHardSphere
Selecting WallInteractionModel MaxwellianThermal
Selecting InflowBoundaryModel oneDirectionalHybridDSMC

Constructing constant properties for
    N2
Time = 6e-06


Its fluid Temp900

Its fluid press113

Its fluid N 9.09744e+21

Its fluid N #0  Foam::error::printStack(Foam::Ostream&) at ??:?
#1  Foam::sigSegv::sigHandler(int) at ??:?
#2  ? in "/lib/x86_64-linux-gnu/libc.so.6"
#3  Foam::oneDirectionalHybridDSMC<Foam::DSMCCloudMod<Foam::DSMCParcel<Foam::particle> > >::inflow() at ??:?
#4  ? in "/home/anthonygay1812/OpenFOAM/anthonygay1812-7/platforms/linux64GccDPInt32Opt/bin/Hybrid"
#5  ? in "/home/anthonygay1812/OpenFOAM/anthonygay1812-7/platforms/linux64GccDPInt32Opt/bin/Hybrid"
#6  __libc_start_main in "/lib/x86_64-linux-gnu/libc.so.6"
#7  ? in "/home/anthonygay1812/OpenFOAM/anthonygay1812-7/platforms/linux64GccDPInt32Opt/bin/Hybrid"
Segmentation fault (core dumped)
