/*---------------------------------------------------------------------------*\
  =========                 |
  \\      /  F ield         | OpenFOAM: The Open Source CFD Toolbox
   \\    /   O peration     | Website:  https://openfoam.org
    \\  /    A nd           | Version:  7
     \\/     M anipulation  |
\*---------------------------------------------------------------------------*/
Build  : 7-1ff648926f77
Exec   : Hybrid
Date   : Apr 28 2020
Time   : 01:31:00
Host   : "DESKTOP-KF81SG4"
PID    : 17040
I/O    : uncollated
Case   : /home/anthonygay1812/OpenFOAM/Working/finalShockTube
nProcs : 1
sigFpe : Enabling floating point exception trapping (FOAM_SIGFPE).
fileModificationChecking : Monitoring run-time modified files using timeStampMaster (fileModificationSkew 10)
allowSystemOperations : Allowing user-supplied system call operations

// * * * * * * * * * * * * * * * * * * * * * * * * * * * * * * * * * * * * * //
Create time

Create mesh for time = 0

Create mesh for time = 0

Meshes created
Reading thermophysical properties

Selecting thermodynamics package 
{
    type            hePsiThermo;
    mixture         pureMixture;
    transport       const;
    thermo          hConst;
    equationOfState perfectGas;
    specie          specie;
    energy          sensibleInternalEnergy;
}

Reading field U

Creating turbulence model

Selecting turbulence model type laminar
Selecting laminar stress model Stokes
fluxScheme: Kurganov
Initialising dsmc for Time = 0


Constructing constant properties for
    N2

Initialising particles

Knudsen:17597.9
Particle regime for cells 0 to 300

Knudsen:60659.6
Particle regime for cells 300 to 600

Total number of molecules added: 87951


ClockTime = 1 s


Constructing dsmcCloud 
Selecting BinaryCollisionModel LarsenBorgnakkeVariableHardSphere
Selecting WallInteractionModel MaxwellianThermal
Selecting InflowBoundaryModel none

Constructing constant properties for
    N2
fieldAverage fieldAverage1:
--> FOAM Warning : 
    From function bool Foam::functionObjectList::read()
    in file db/functionObjects/functionObjectList/functionObjectList.C at line 746
    Caught FatalError 
--> FOAM FATAL ERROR: 
iter not found in table.  Valid entries: 
2
(
iteration
time
)


    From function const T& Foam::HashTable<T, Key, Hash>::operator[](const Key&) const [with T = unsigned int; Key = Foam::word; Hash = Foam::string::hash]
    in file /home/ubuntu/OpenFOAM/OpenFOAM-7/src/OpenFOAM/lnInclude/HashTableI.H at line 126.

Time = 6e-06

deltaT = 7.08e-06
Mean and max Courant Numbers = 0.133196 0.133196
diagonal:  Solving for rho, Initial residual = 0, Final residual = 0, No Iterations 0
diagonal:  Solving for rhoUx, Initial residual = 0, Final residual = 0, No Iterations 0
diagonal:  Solving for rhoE, Initial residual = 0, Final residual = 0, No Iterations 0
    Collisions                      = 881778
    Acceptance rate                 = 0.964362

Cloud name: dsmc
    Number of dsmc particles        = 87951
    Number of molecules             = 3.51804e+22
    Mass in system                  = 0.00163589
    Average linear momentum         = (1.7065e-25 2.72536e-27 -6.84296e-26)
   |Average linear momentum|        = 1.83879e-25
    Average linear kinetic energy   = 1.66424e-20
    Average internal energy         = 9.74937e-21
    Average total energy            = 2.63918e-20

ExecutionTime = 2.36 s  ClockTime = 3 s  Iterations: 0.847458/508.475  Projected time to finish: 23.5607 min
Time = 1.308e-05

deltaT = 8.06791e-06
Mean and max Courant Numbers = 0.151781 0.151781
diagonal:  Solving for rho, Initial residual = 0, Final residual = 0, No Iterations 0
diagonal:  Solving for rhoUx, Initial residual = 0, Final residual = 0, No Iterations 0
diagonal:  Solving for rhoE, Initial residual = 0, Final residual = 0, No Iterations 0
    Collisions                      = 1268893
    Acceptance rate                 = 0.576358

Cloud name: dsmc
    Number of dsmc particles        = 87951
    Number of molecules             = 3.51804e+22
    Mass in system                  = 0.00163589
    Average linear momentum         = (1.90939e-25 2.72536e-27 -6.84296e-26)
   |Average linear momentum|        = 2.02849e-25
    Average linear kinetic energy   = 1.5861e-20
    Average internal energy         = 1.05308e-20
    Average total energy            = 2.63918e-20

ExecutionTime = 3.85 s  ClockTime = 4 s  Iterations: 1.62124/446.212  Projected time to finish: 17.5964 min
Time = 2.11479e-05

deltaT = 8.91716e-06
Mean and max Courant Numbers = 0.167758 0.167758
diagonal:  Solving for rho, Initial residual = 0, Final residual = 0, No Iterations 0
diagonal:  Solving for rhoUx, Initial residual = 0, Final residual = 0, No Iterations 0
diagonal:  Solving for rhoE, Initial residual = 0, Final residual = 0, No Iterations 0
    Collisions                      = 1400606
    Acceptance rate                 = 0.560261

Cloud name: dsmc
    Number of dsmc particles        = 87951
    Number of molecules             = 3.51804e+22
    Mass in system                  = 0.00163589
    Average linear momentum         = (2.12195e-25 2.72536e-27 -6.84296e-26)
   |Average linear momentum|        = 2.22973e-25
    Average linear kinetic energy   = 1.58223e-20
    Average internal energy         = 1.05695e-20
    Average total energy            = 2.63918e-20

ExecutionTime = 5.54 s  ClockTime = 6 s  Iterations: 2.3716/403.716  Projected time to finish: 15.6255 min
Time = 3.00651e-05

deltaT = 9.70397e-06
Mean and max Courant Numbers = 0.18256 0.18256
diagonal:  Solving for rho, Initial residual = 0, Final residual = 0, No Iterations 0
diagonal:  Solving for rhoUx, Initial residual = 0, Final residual = 0, No Iterations 0
diagonal:  Solving for rhoE, Initial residual = 0, Final residual = 0, No Iterations 0
    Collisions                      = 1523505
    Acceptance rate                 = 0.551699

Cloud name: dsmc
    Number of dsmc particles        = 87951
    Number of molecules             = 3.51804e+22
    Mass in system                  = 0.00163589
    Average linear momentum         = (2.47358e-25 2.72536e-27 -6.84296e-26)
   |Average linear momentum|        = 2.56664e-25
    Average linear kinetic energy   = 1.58426e-20
    Average internal energy         = 1.05492e-20
    Average total energy            = 2.63918e-20

ExecutionTime = 7.41 s  ClockTime = 8 s  Iterations: 3.09822/370.982  Projected time to finish: 14.6644 min
Time = 3.9769e-05

deltaT = 1.033e-05
Mean and max Courant Numbers = 0.194338 0.194338
diagonal:  Solving for rho, Initial residual = 0, Final residual = 0, No Iterations 0
diagonal:  Solving for rhoUx, Initial residual = 0, Final residual = 0, No Iterations 0
diagonal:  Solving for rhoE, Initial residual = 0, Final residual = 0, No Iterations 0
    Collisions                      = 1620002
    Acceptance rate                 = 0.545616

Cloud name: dsmc
    Number of dsmc particles        = 87951
    Number of molecules             = 3.51804e+22
    Mass in system                  = 0.00163589
    Average linear momentum         = (2.70803e-25 2.72536e-27 -6.84296e-26)
   |Average linear momentum|        = 2.79328e-25
    Average linear kinetic energy   = 1.58248e-20
    Average internal energy         = 1.05669e-20
    Average total energy            = 2.63918e-20

ExecutionTime = 9.46 s  ClockTime = 10 s  Iterations: 3.84985/348.498  Projected time to finish: 14.1147 min
Time = 5.00991e-05

deltaT = 1.033e-05
Mean and max Courant Numbers = 0.194338 0.194338
diagonal:  Solving for rho, Initial residual = 0, Final residual = 0, No Iterations 0
diagonal:  Solving for rhoUx, Initial residual = 0, Final residual = 0, No Iterations 0
diagonal:  Solving for rhoE, Initial residual = 0, Final residual = 0, No Iterations 0
    Collisions                      = 1622467
    Acceptance rate                 = 0.54275

Cloud name: dsmc
    Number of dsmc particles        = 87951
    Number of molecules             = 3.51804e+22
    Mass in system                  = 0.00163589
    Average linear momentum         = (3.02115e-25 2.72536e-27 -6.84296e-26)
   |Average linear momentum|        = 3.09779e-25
    Average linear kinetic energy   = 1.5845e-20
    Average internal energy         = 1.05468e-20
    Average total energy            = 2.63918e-20

ExecutionTime = 11.46 s  ClockTime = 12 s  Iterations: 4.84985/348.498  Projected time to finish: 13.5338 min
Time = 6.04291e-05

deltaT = 1.033e-05
Mean and max Courant Numbers = 0.194338 0.194338
diagonal:  Solving for rho, Initial residual = 0, Final residual = 0, No Iterations 0
diagonal:  Solving for rhoUx, Initial residual = 0, Final residual = 0, No Iterations 0
diagonal:  Solving for rhoE, Initial residual = 0, Final residual = 0, No Iterations 0
    Collisions                      = 1620205
    Acceptance rate                 = 0.539945

Cloud name: dsmc
    Number of dsmc particles        = 87951
    Number of molecules             = 3.51804e+22
    Mass in system                  = 0.00163589
    Average linear momentum         = (3.19059e-25 2.72536e-27 -6.84296e-26)
   |Average linear momentum|        = 3.26326e-25
    Average linear kinetic energy   = 1.58822e-20
    Average internal energy         = 1.05095e-20
    Average total energy            = 2.63918e-20

ExecutionTime = 13.55 s  ClockTime = 14 s  Iterations: 5.84985/348.498  Projected time to finish: 13.228 min
Time = 7.07591e-05

deltaT = 1.033e-05
Mean and max Courant Numbers = 0.194338 0.194338
diagonal:  Solving for rho, Initial residual = 0, Final residual = 0, No Iterations 0
diagonal:  Solving for rhoUx, Initial residual = 0, Final residual = 0, No Iterations 0
diagonal:  Solving for rhoE, Initial residual = 0, Final residual = 0, No Iterations 0
    Collisions                      = 1619253
    Acceptance rate                 = 0.537844

Cloud name: dsmc
    Number of dsmc particles        = 87951
    Number of molecules             = 3.51804e+22
    Mass in system                  = 0.00163589
    Average linear momentum         = (3.54796e-25 2.72536e-27 -6.84296e-26)
   |Average linear momentum|        = 3.61345e-25
    Average linear kinetic energy   = 1.58313e-20
    Average internal energy         = 1.05605e-20
    Average total energy            = 2.63918e-20

ExecutionTime = 15.6 s  ClockTime = 16 s  Iterations: 6.84985/348.498  Projected time to finish: 12.968 min
Time = 8.10892e-05

deltaT = 1.033e-05
Mean and max Courant Numbers = 0.194338 0.194338
diagonal:  Solving for rho, Initial residual = 0, Final residual = 0, No Iterations 0
diagonal:  Solving for rhoUx, Initial residual = 0, Final residual = 0, No Iterations 0
diagonal:  Solving for rhoE, Initial residual = 0, Final residual = 0, No Iterations 0
    Collisions                      = 1618240
    Acceptance rate                 = 0.535965

Cloud name: dsmc
    Number of dsmc particles        = 87951
    Number of molecules             = 3.51804e+22
    Mass in system                  = 0.00163589
    Average linear momentum         = (3.76633e-25 2.72536e-27 -6.84296e-26)
   |Average linear momentum|        = 3.82809e-25
    Average linear kinetic energy   = 1.58012e-20
    Average internal energy         = 1.05906e-20
    Average total energy            = 2.63918e-20

ExecutionTime = 17.61 s  ClockTime = 18 s  Iterations: 7.84985/348.498  Projected time to finish: 12.7366 min
Time = 9.14192e-05

deltaT = 1.033e-05
Mean and max Courant Numbers = 0.194338 0.194338
diagonal:  Solving for rho, Initial residual = 0, Final residual = 0, No Iterations 0
diagonal:  Solving for rhoUx, Initial residual = 0, Final residual = 0, No Iterations 0
diagonal:  Solving for rhoE, Initial residual = 0, Final residual = 0, No Iterations 0
    Collisions                      = 1617073
    Acceptance rate                 = 0.534652

Cloud name: dsmc
    Number of dsmc particles        = 87951
    Number of molecules             = 3.51804e+22
    Mass in system                  = 0.00163589
    Average linear momentum         = (4.14612e-25 2.72536e-27 -6.84296e-26)
   |Average linear momentum|        = 4.2023e-25
    Average linear kinetic energy   = 1.58265e-20
    Average internal energy         = 1.05653e-20
    Average total energy            = 2.63918e-20

ExecutionTime = 19.75 s  ClockTime = 20 s  Iterations: 8.84985/348.498  Projected time to finish: 12.6331 min
Time = 0.000101749

deltaT = 1.033e-05
Mean and max Courant Numbers = 0.194338 0.194338
diagonal:  Solving for rho, Initial residual = 0, Final residual = 0, No Iterations 0
diagonal:  Solving for rhoUx, Initial residual = 0, Final residual = 0, No Iterations 0
diagonal:  Solving for rhoE, Initial residual = 0, Final residual = 0, No Iterations 0
    Collisions                      = 1617046
    Acceptance rate                 = 0.533168

Cloud name: dsmc
    Number of dsmc particles        = 87951
    Number of molecules             = 3.51804e+22
    Mass in system                  = 0.00163589
    Average linear momentum         = (4.42299e-25 2.72536e-27 -6.84296e-26)
   |Average linear momentum|        = 4.47569e-25
    Average linear kinetic energy   = 1.58419e-20
    Average internal energy         = 1.05499e-20
    Average total energy            = 2.63918e-20

ExecutionTime = 21.79 s  ClockTime = 22 s  Iterations: 9.84985/348.498  Projected time to finish: 12.4861 min
Time = 0.000112079

deltaT = 1.033e-05
Mean and max Courant Numbers = 0.194338 0.194338
diagonal:  Solving for rho, Initial residual = 0, Final residual = 0, No Iterations 0
diagonal:  Solving for rhoUx, Initial residual = 0, Final residual = 0, No Iterations 0
diagonal:  Solving for rhoE, Initial residual = 0, Final residual = 0, No Iterations 0
    Collisions                      = 1614948
    Acceptance rate                 = 0.531918

Cloud name: dsmc
    Number of dsmc particles        = 87951
    Number of molecules             = 3.51804e+22
    Mass in system                  = 0.00163589
    Average linear momentum         = (4.63642e-25 2.72536e-27 -6.84296e-26)
   |Average linear momentum|        = 4.68672e-25
    Average linear kinetic energy   = 1.58368e-20
    Average internal energy         = 1.0555e-20
    Average total energy            = 2.63918e-20

ExecutionTime = 23.86 s  ClockTime = 24 s  Iterations: 10.8498/348.498  Projected time to finish: 12.3754 min
Time = 0.000122409

deltaT = 1.033e-05
Mean and max Courant Numbers = 0.194338 0.194338
diagonal:  Solving for rho, Initial residual = 0, Final residual = 0, No Iterations 0
diagonal:  Solving for rhoUx, Initial residual = 0, Final residual = 0, No Iterations 0
diagonal:  Solving for rhoE, Initial residual = 0, Final residual = 0, No Iterations 0
    Collisions                      = 1615513
    Acceptance rate                 = 0.530925

Cloud name: dsmc
    Number of dsmc particles        = 87951
    Number of molecules             = 3.51804e+22
    Mass in system                  = 0.00163589
    Average linear momentum         = (5.0434e-25 2.72536e-27 -6.84296e-26)
   |Average linear momentum|        = 5.08969e-25
    Average linear kinetic energy   = 1.58157e-20
    Average internal energy         = 1.05761e-20
    Average total energy            = 2.63918e-20

ExecutionTime = 26.05 s  ClockTime = 26 s  Iterations: 11.8498/348.498  Projected time to finish: 12.3345 min
Time = 0.000132739

deltaT = 1.033e-05
Mean and max Courant Numbers = 0.194338 0.194338
diagonal:  Solving for rho, Initial residual = 0, Final residual = 0, No Iterations 0
diagonal:  Solving for rhoUx, Initial residual = 0, Final residual = 0, No Iterations 0
diagonal:  Solving for rhoE, Initial residual = 0, Final residual = 0, No Iterations 0
    Collisions                      = 1612894
    Acceptance rate                 = 0.529743

Cloud name: dsmc
    Number of dsmc particles        = 87951
    Number of molecules             = 3.51804e+22
    Mass in system                  = 0.00163589
    Average linear momentum         = (5.29023e-25 2.72536e-27 -6.84296e-26)
   |Average linear momentum|        = 5.33438e-25
    Average linear kinetic energy   = 1.58269e-20
    Average internal energy         = 1.05649e-20
    Average total energy            = 2.63918e-20

ExecutionTime = 28.1 s  ClockTime = 28 s  Iterations: 12.8498/348.498  Projected time to finish: 12.2333 min
Time = 0.000143069

deltaT = 1.033e-05
Mean and max Courant Numbers = 0.194338 0.194338
diagonal:  Solving for rho, Initial residual = 0, Final residual = 0, No Iterations 0
diagonal:  Solving for rhoUx, Initial residual = 0, Final residual = 0, No Iterations 0
diagonal:  Solving for rhoE, Initial residual = 0, Final residual = 0, No Iterations 0
    Collisions                      = 1612899
    Acceptance rate                 = 0.52907

Cloud name: dsmc
    Number of dsmc particles        = 87951
    Number of molecules             = 3.51804e+22
    Mass in system                  = 0.00163589
    Average linear momentum         = (5.6268e-25 2.72536e-27 -6.84296e-26)
   |Average linear momentum|        = 5.66832e-25
    Average linear kinetic energy   = 1.5865e-20
    Average internal energy         = 1.05268e-20
    Average total energy            = 2.63918e-20

ExecutionTime = 30.21 s  ClockTime = 31 s  Iterations: 13.8498/348.498  Projected time to finish: 12.1659 min
Time = 0.000153399

deltaT = 1.033e-05
Mean and max Courant Numbers = 0.194338 0.194338
diagonal:  Solving for rho, Initial residual = 0, Final residual = 0, No Iterations 0
diagonal:  Solving for rhoUx, Initial residual = 0, Final residual = 0, No Iterations 0
diagonal:  Solving for rhoE, Initial residual = 0, Final residual = 0, No Iterations 0
    Collisions                      = 1614028
    Acceptance rate                 = 0.529217

Cloud name: dsmc
    Number of dsmc particles        = 87951
    Number of molecules             = 3.51804e+22
    Mass in system                  = 0.00163589
    Average linear momentum         = (5.95291e-25 2.72536e-27 -6.84296e-26)
   |Average linear momentum|        = 5.99217e-25
    Average linear kinetic energy   = 1.59168e-20
    Average internal energy         = 1.0475e-20
    Average total energy            = 2.63918e-20

ExecutionTime = 32.29 s  ClockTime = 33 s  Iterations: 14.8498/348.498  Projected time to finish: 12.0916 min
Time = 0.000163729

deltaT = 1.033e-05
Mean and max Courant Numbers = 0.194338 0.194338
diagonal:  Solving for rho, Initial residual = 0, Final residual = 0, No Iterations 0
diagonal:  Solving for rhoUx, Initial residual = 0, Final residual = 0, No Iterations 0
diagonal:  Solving for rhoE, Initial residual = 0, Final residual = 0, No Iterations 0
    Collisions                      = 1612521
    Acceptance rate                 = 0.528618

Cloud name: dsmc
    Number of dsmc particles        = 87951
    Number of molecules             = 3.51804e+22
    Mass in system                  = 0.00163589
    Average linear momentum         = (6.22091e-25 2.72536e-27 -6.84296e-26)
   |Average linear momentum|        = 6.25849e-25
    Average linear kinetic energy   = 1.58833e-20
    Average internal energy         = 1.05085e-20
    Average total energy            = 2.63918e-20

ExecutionTime = 34.36 s  ClockTime = 35 s  Iterations: 15.8498/348.498  Projected time to finish: 12.0188 min
Time = 0.000174059

deltaT = 1.033e-05
Mean and max Courant Numbers = 0.194338 0.194338
diagonal:  Solving for rho, Initial residual = 0, Final residual = 0, No Iterations 0
diagonal:  Solving for rhoUx, Initial residual = 0, Final residual = 0, No Iterations 0
diagonal:  Solving for rhoE, Initial residual = 0, Final residual = 0, No Iterations 0
    Collisions                      = 1610720
    Acceptance rate                 = 0.527606

Cloud name: dsmc
    Number of dsmc particles        = 87951
    Number of molecules             = 3.51804e+22
    Mass in system                  = 0.00163589
    Average linear momentum         = (6.57323e-25 2.72536e-27 -6.84296e-26)
   |Average linear momentum|        = 6.60881e-25
    Average linear kinetic energy   = 1.59288e-20
    Average internal energy         = 1.0463e-20
    Average total energy            = 2.63918e-20

ExecutionTime = 36.5 s  ClockTime = 37 s  Iterations: 16.8498/348.498  Projected time to finish: 11.9736 min
Time = 0.000184389

deltaT = 1.033e-05
Mean and max Courant Numbers = 0.194338 0.194338
diagonal:  Solving for rho, Initial residual = 0, Final residual = 0, No Iterations 0
diagonal:  Solving for rhoUx, Initial residual = 0, Final residual = 0, No Iterations 0
diagonal:  Solving for rhoE, Initial residual = 0, Final residual = 0, No Iterations 0
    Collisions                      = 1609801
    Acceptance rate                 = 0.526806

Cloud name: dsmc
    Number of dsmc particles        = 87951
    Number of molecules             = 3.51804e+22
    Mass in system                  = 0.00163589
    Average linear momentum         = (6.83675e-25 2.72536e-27 -6.84296e-26)
   |Average linear momentum|        = 6.87097e-25
    Average linear kinetic energy   = 1.58381e-20
    Average internal energy         = 1.05537e-20
    Average total energy            = 2.63918e-20

ExecutionTime = 38.57 s  ClockTime = 39 s  Iterations: 17.8498/348.498  Projected time to finish: 11.9078 min
Time = 0.00019472

deltaT = 1.033e-05
Mean and max Courant Numbers = 0.194338 0.194338
diagonal:  Solving for rho, Initial residual = 0, Final residual = 0, No Iterations 0
diagonal:  Solving for rhoUx, Initial residual = 0, Final residual = 0, No Iterations 0
diagonal:  Solving for rhoE, Initial residual = 0, Final residual = 0, No Iterations 0
    Collisions                      = 1610268
    Acceptance rate                 = 0.526704

Cloud name: dsmc
    Number of dsmc particles        = 87951
    Number of molecules             = 3.51804e+22
    Mass in system                  = 0.00163589
    Average linear momentum         = (7.08759e-25 2.72536e-27 -6.84296e-26)
   |Average linear momentum|        = 7.1206e-25
    Average linear kinetic energy   = 1.58779e-20
    Average internal energy         = 1.05139e-20
    Average total energy            = 2.63918e-20

ExecutionTime = 40.64 s  ClockTime = 41 s  Iterations: 18.8498/348.498  Projected time to finish: 11.8453 min
Time = 0.00020505

deltaT = 1.033e-05
Mean and max Courant Numbers = 0.194338 0.194338
diagonal:  Solving for rho, Initial residual = 0, Final residual = 0, No Iterations 0
diagonal:  Solving for rhoUx, Initial residual = 0, Final residual = 0, No Iterations 0
diagonal:  Solving for rhoE, Initial residual = 0, Final residual = 0, No Iterations 0
    Collisions                      = 1608525
    Acceptance rate                 = 0.525161

Cloud name: dsmc
    Number of dsmc particles        = 87951
    Number of molecules             = 3.51804e+22
    Mass in system                  = 0.00163589
    Average linear momentum         = (7.38325e-25 2.72536e-27 -6.84296e-26)
   |Average linear momentum|        = 7.41495e-25
    Average linear kinetic energy   = 1.585e-20
    Average internal energy         = 1.05418e-20
    Average total energy            = 2.63918e-20

ExecutionTime = 42.77 s  ClockTime = 43 s  Iterations: 19.8498/348.498  Projected time to finish: 11.8022 min
Time = 0.00021538

deltaT = 1.033e-05
Mean and max Courant Numbers = 0.194338 0.194338
diagonal:  Solving for rho, Initial residual = 0, Final residual = 0, No Iterations 0
diagonal:  Solving for rhoUx, Initial residual = 0, Final residual = 0, No Iterations 0
diagonal:  Solving for rhoE, Initial residual = 0, Final residual = 0, No Iterations 0
    Collisions                      = 1607145
    Acceptance rate                 = 0.524761

Cloud name: dsmc
    Number of dsmc particles        = 87951
    Number of molecules             = 3.51804e+22
    Mass in system                  = 0.00163589
    Average linear momentum         = (7.75582e-25 2.72536e-27 -6.84296e-26)
   |Average linear momentum|        = 7.786e-25
    Average linear kinetic energy   = 1.59217e-20
    Average internal energy         = 1.04701e-20
    Average total energy            = 2.63918e-20

ExecutionTime = 44.85 s  ClockTime = 45 s  Iterations: 20.8498/348.498  Projected time to finish: 11.7467 min
Time = 0.00022571

deltaT = 1.033e-05
Mean and max Courant Numbers = 0.194338 0.194338
diagonal:  Solving for rho, Initial residual = 0, Final residual = 0, No Iterations 0
diagonal:  Solving for rhoUx, Initial residual = 0, Final residual = 0, No Iterations 0
diagonal:  Solving for rhoE, Initial residual = 0, Final residual = 0, No Iterations 0
    Collisions                      = 1607573
    Acceptance rate                 = 0.525098

Cloud name: dsmc
    Number of dsmc particles        = 87951
    Number of molecules             = 3.51804e+22
    Mass in system                  = 0.00163589
    Average linear momentum         = (8.03869e-25 2.72536e-27 -6.84296e-26)
   |Average linear momentum|        = 8.06781e-25
    Average linear kinetic energy   = 1.58706e-20
    Average internal energy         = 1.05212e-20
    Average total energy            = 2.63918e-20

ExecutionTime = 46.96 s  ClockTime = 47 s  Iterations: 21.8498/348.498  Projected time to finish: 11.7006 min
Time = 0.00023604

deltaT = 1.033e-05
Mean and max Courant Numbers = 0.194338 0.194338
diagonal:  Solving for rho, Initial residual = 0, Final residual = 0, No Iterations 0
diagonal:  Solving for rhoUx, Initial residual = 0, Final residual = 0, No Iterations 0
diagonal:  Solving for rhoE, Initial residual = 0, Final residual = 0, No Iterations 0
    Collisions                      = 1604331
    Acceptance rate                 = 0.523903

Cloud name: dsmc
    Number of dsmc particles        = 87951
    Number of molecules             = 3.51804e+22
    Mass in system                  = 0.00163589
    Average linear momentum         = (8.35572e-25 2.72536e-27 -6.84296e-26)
   |Average linear momentum|        = 8.38374e-25
    Average linear kinetic energy   = 1.58329e-20
    Average internal energy         = 1.05589e-20
    Average total energy            = 2.63918e-20

ExecutionTime = 49.08 s  ClockTime = 49 s  Iterations: 22.8498/348.498  Projected time to finish: 11.6579 min
Time = 0.00024637

deltaT = 1.033e-05
Mean and max Courant Numbers = 0.194338 0.194338
diagonal:  Solving for rho, Initial residual = 0, Final residual = 0, No Iterations 0
diagonal:  Solving for rhoUx, Initial residual = 0, Final residual = 0, No Iterations 0
diagonal:  Solving for rhoE, Initial residual = 0, Final residual = 0, No Iterations 0
    Collisions                      = 1601769
    Acceptance rate                 = 0.523054

Cloud name: dsmc
    Number of dsmc particles        = 87951
    Number of molecules             = 3.51804e+22
    Mass in system                  = 0.00163589
    Average linear momentum         = (8.62585e-25 2.72536e-27 -6.84296e-26)
   |Average linear momentum|        = 8.653e-25
    Average linear kinetic energy   = 1.58634e-20
    Average internal energy         = 1.05283e-20
    Average total energy            = 2.63918e-20

ExecutionTime = 51.14 s  ClockTime = 52 s  Iterations: 23.8498/348.498  Projected time to finish: 11.6021 min
Time = 0.0002567

deltaT = 1.033e-05
Mean and max Courant Numbers = 0.194338 0.194338
diagonal:  Solving for rho, Initial residual = 0, Final residual = 0, No Iterations 0
diagonal:  Solving for rhoUx, Initial residual = 0, Final residual = 0, No Iterations 0
diagonal:  Solving for rhoE, Initial residual = 0, Final residual = 0, No Iterations 0
    Collisions                      = 1603274
    Acceptance rate                 = 0.523793

Cloud name: dsmc
    Number of dsmc particles        = 87951
    Number of molecules             = 3.51804e+22
    Mass in system                  = 0.00163589
    Average linear momentum         = (8.88329e-25 2.72536e-27 -6.84296e-26)
   |Average linear momentum|        = 8.90965e-25
    Average linear kinetic energy   = 1.58652e-20
    Average internal energy         = 1.05266e-20
    Average total energy            = 2.63918e-20

ExecutionTime = 53.32 s  ClockTime = 54 s  Iterations: 24.8498/348.498  Projected time to finish: 11.5741 min
Time = 0.00026703

deltaT = 1.033e-05
Mean and max Courant Numbers = 0.194338 0.194338
diagonal:  Solving for rho, Initial residual = 0, Final residual = 0, No Iterations 0
diagonal:  Solving for rhoUx, Initial residual = 0, Final residual = 0, No Iterations 0
diagonal:  Solving for rhoE, Initial residual = 0, Final residual = 0, No Iterations 0
    Collisions                      = 1602884
    Acceptance rate                 = 0.52357

Cloud name: dsmc
    Number of dsmc particles        = 87951
    Number of molecules             = 3.51804e+22
    Mass in system                  = 0.00163589
    Average linear momentum         = (9.17116e-25 2.72536e-27 -6.84296e-26)
   |Average linear momentum|        = 9.19669e-25
    Average linear kinetic energy   = 1.5883e-20
    Average internal energy         = 1.05088e-20
    Average total energy            = 2.63918e-20

ExecutionTime = 55.41 s  ClockTime = 56 s  Iterations: 25.8498/348.498  Projected time to finish: 11.5268 min
Time = 0.00027736

deltaT = 1.033e-05
Mean and max Courant Numbers = 0.194338 0.194338
diagonal:  Solving for rho, Initial residual = 0, Final residual = 0, No Iterations 0
diagonal:  Solving for rhoUx, Initial residual = 0, Final residual = 0, No Iterations 0
diagonal:  Solving for rhoE, Initial residual = 0, Final residual = 0, No Iterations 0
    Collisions                      = 1601252
    Acceptance rate                 = 0.523023

Cloud name: dsmc
    Number of dsmc particles        = 87951
    Number of molecules             = 3.51804e+22
    Mass in system                  = 0.00163589
    Average linear momentum         = (9.51945e-25 2.72536e-27 -6.84296e-26)
   |Average linear momentum|        = 9.54405e-25
    Average linear kinetic energy   = 1.5875e-20
    Average internal energy         = 1.05168e-20
    Average total energy            = 2.63918e-20

ExecutionTime = 57.47 s  ClockTime = 58 s  Iterations: 26.8498/348.498  Projected time to finish: 11.4744 min
Time = 0.00028769

deltaT = 1.033e-05
Mean and max Courant Numbers = 0.194338 0.194338
diagonal:  Solving for rho, Initial residual = 0, Final residual = 0, No Iterations 0
diagonal:  Solving for rhoUx, Initial residual = 0, Final residual = 0, No Iterations 0
diagonal:  Solving for rhoE, Initial residual = 0, Final residual = 0, No Iterations 0
    Collisions                      = 1600672
    Acceptance rate                 = 0.522665

Cloud name: dsmc
    Number of dsmc particles        = 87951
    Number of molecules             = 3.51804e+22
    Mass in system                  = 0.00163589
    Average linear momentum         = (9.82525e-25 2.72536e-27 -6.84296e-26)
   |Average linear momentum|        = 9.84909e-25
    Average linear kinetic energy   = 1.59137e-20
    Average internal energy         = 1.04781e-20
    Average total energy            = 2.63918e-20

ExecutionTime = 59.66 s  ClockTime = 60 s  Iterations: 27.8498/348.498  Projected time to finish: 11.4482 min
Time = 0.00029802

deltaT = 1.033e-05
Mean and max Courant Numbers = 0.194338 0.194338
diagonal:  Solving for rho, Initial residual = 0, Final residual = 0, No Iterations 0
diagonal:  Solving for rhoUx, Initial residual = 0, Final residual = 0, No Iterations 0
diagonal:  Solving for rhoE, Initial residual = 0, Final residual = 0, No Iterations 0
    Collisions                      = 1597521
    Acceptance rate                 = 0.521515

Cloud name: dsmc
    Number of dsmc particles        = 87951
    Number of molecules             = 3.51804e+22
    Mass in system                  = 0.00163589
    Average linear momentum         = (1.01553e-24 2.72536e-27 -6.84296e-26)
   |Average linear momentum|        = 1.01784e-24
    Average linear kinetic energy   = 1.59157e-20
    Average internal energy         = 1.0476e-20
    Average total energy            = 2.63918e-20

ExecutionTime = 61.72 s  ClockTime = 62 s  Iterations: 28.8498/348.498  Projected time to finish: 11.3974 min
Time = 0.00030835

deltaT = 1.033e-05
Mean and max Courant Numbers = 0.194338 0.194338
diagonal:  Solving for rho, Initial residual = 0, Final residual = 0, No Iterations 0
diagonal:  Solving for rhoUx, Initial residual = 0, Final residual = 0, No Iterations 0
diagonal:  Solving for rhoE, Initial residual = 0, Final residual = 0, No Iterations 0
    Collisions                      = 1599344
    Acceptance rate                 = 0.521927

Cloud name: dsmc
    Number of dsmc particles        = 87951
    Number of molecules             = 3.51804e+22
    Mass in system                  = 0.00163589
    Average linear momentum         = (1.04479e-24 2.72536e-27 -6.84296e-26)
   |Average linear momentum|        = 1.04703e-24
    Average linear kinetic energy   = 1.59323e-20
    Average internal energy         = 1.04595e-20
    Average total energy            = 2.63918e-20

ExecutionTime = 63.85 s  ClockTime = 64 s  Iterations: 29.8498/348.498  Projected time to finish: 11.36 min
Time = 0.00031868

deltaT = 1.033e-05
Mean and max Courant Numbers = 0.194338 0.194338
diagonal:  Solving for rho, Initial residual = 0, Final residual = 0, No Iterations 0
diagonal:  Solving for rhoUx, Initial residual = 0, Final residual = 0, No Iterations 0
diagonal:  Solving for rhoE, Initial residual = 0, Final residual = 0, No Iterations 0
    Collisions                      = 1596799
    Acceptance rate                 = 0.521004

Cloud name: dsmc
    Number of dsmc particles        = 87951
    Number of molecules             = 3.51804e+22
    Mass in system                  = 0.00163589
    Average linear momentum         = (1.08613e-24 2.72536e-27 -6.84296e-26)
   |Average linear momentum|        = 1.08829e-24
    Average linear kinetic energy   = 1.59302e-20
    Average internal energy         = 1.04616e-20
    Average total energy            = 2.63918e-20

ExecutionTime = 65.99 s  ClockTime = 66 s  Iterations: 30.8498/348.498  Projected time to finish: 11.3245 min
Time = 0.00032901

deltaT = 1.033e-05
Mean and max Courant Numbers = 0.194338 0.194338
diagonal:  Solving for rho, Initial residual = 0, Final residual = 0, No Iterations 0
diagonal:  Solving for rhoUx, Initial residual = 0, Final residual = 0, No Iterations 0
diagonal:  Solving for rhoE, Initial residual = 0, Final residual = 0, No Iterations 0
    Collisions                      = 1596688
    Acceptance rate                 = 0.520751

Cloud name: dsmc
    Number of dsmc particles        = 87951
    Number of molecules             = 3.51804e+22
    Mass in system                  = 0.00163589
    Average linear momentum         = (1.10773e-24 2.72536e-27 -6.84296e-26)
   |Average linear momentum|        = 1.10984e-24
    Average linear kinetic energy   = 1.59368e-20
    Average internal energy         = 1.04549e-20
    Average total energy            = 2.63918e-20

ExecutionTime = 68.07 s  ClockTime = 68 s  Iterations: 31.8498/348.498  Projected time to finish: 11.2791 min
Time = 0.00033934

deltaT = 1.033e-05
Mean and max Courant Numbers = 0.194338 0.194338
diagonal:  Solving for rho, Initial residual = 0, Final residual = 0, No Iterations 0
diagonal:  Solving for rhoUx, Initial residual = 0, Final residual = 0, No Iterations 0
diagonal:  Solving for rhoE, Initial residual = 0, Final residual = 0, No Iterations 0
    Collisions                      = 1596809
    Acceptance rate                 = 0.520704

Cloud name: dsmc
    Number of dsmc particles        = 87951
    Number of molecules             = 3.51804e+22
    Mass in system                  = 0.00163589
    Average linear momentum         = (1.13712e-24 2.72536e-27 -6.84296e-26)
   |Average linear momentum|        = 1.13918e-24
    Average linear kinetic energy   = 1.58452e-20
    Average internal energy         = 1.05466e-20
    Average total energy            = 2.63918e-20

ExecutionTime = 70.18 s  ClockTime = 71 s  Iterations: 32.8498/348.498  Projected time to finish: 11.2391 min
Time = 0.00034967

deltaT = 1.033e-05
Mean and max Courant Numbers = 0.194338 0.194338
diagonal:  Solving for rho, Initial residual = 0, Final residual = 0, No Iterations 0
diagonal:  Solving for rhoUx, Initial residual = 0, Final residual = 0, No Iterations 0
diagonal:  Solving for rhoE, Initial residual = 0, Final residual = 0, No Iterations 0
    Collisions                      = 1595854
    Acceptance rate                 = 0.520232

Cloud name: dsmc
    Number of dsmc particles        = 87951
    Number of molecules             = 3.51804e+22
    Mass in system                  = 0.00163589
    Average linear momentum         = (1.16345e-24 2.72536e-27 -6.84296e-26)
   |Average linear momentum|        = 1.16546e-24
    Average linear kinetic energy   = 1.58817e-20
    Average internal energy         = 1.05101e-20
    Average total energy            = 2.63918e-20

ExecutionTime = 72.27 s  ClockTime = 73 s  Iterations: 33.8498/348.498  Projected time to finish: 11.1963 min
Time = 0.00036

deltaT = 1.05882e-05
Mean and max Courant Numbers = 0.199196 0.199196
diagonal:  Solving for rho, Initial residual = 0, Final residual = 0, No Iterations 0
diagonal:  Solving for rhoUx, Initial residual = 0, Final residual = 0, No Iterations 0
diagonal:  Solving for rhoE, Initial residual = 0, Final residual = 0, No Iterations 0
    Collisions                      = 1634231
    Acceptance rate                 = 0.519706

Cloud name: dsmc
    Number of dsmc particles        = 87951
    Number of molecules             = 3.51804e+22
    Mass in system                  = 0.00163589
    Average linear momentum         = (1.19842e-24 2.72536e-27 -6.84296e-26)
   |Average linear momentum|        = 1.20038e-24
    Average linear kinetic energy   = 1.58891e-20
    Average internal energy         = 1.05026e-20
    Average total energy            = 2.63918e-20

ExecutionTime = 75.11 s  ClockTime = 76 s  Iterations: 34/340  Projected time to finish: 11.2665 min
Calculating dsmcFieldsMod.
    Calculating UMean field.
    Calculating translationalT field.
    Calculating internalT field.
    Calculating overallT field.
    Calculating pressure field.
    mag(UMean) max/min : 461.637 3.06091
    translationalT max/min : 1019.28 224.113
    internalT max/min : 1126.85 209.229
    overallT max/min : 1009.51 248.109
    p max/min : 143.957 5.44913
dsmcFieldsMod written.

Time = 0.000370588

deltaT = 1.05882e-05
Mean and max Courant Numbers = 0.199196 0.199196
diagonal:  Solving for rho, Initial residual = 0, Final residual = 0, No Iterations 0
diagonal:  Solving for rhoUx, Initial residual = 0, Final residual = 0, No Iterations 0
diagonal:  Solving for rhoE, Initial residual = 0, Final residual = 0, No Iterations 0
    Collisions                      = 1632489
    Acceptance rate                 = 0.519096

Cloud name: dsmc
    Number of dsmc particles        = 87951
    Number of molecules             = 3.51804e+22
    Mass in system                  = 0.00163589
    Average linear momentum         = (1.23232e-24 2.72536e-27 -6.84296e-26)
   |Average linear momentum|        = 1.23422e-24
    Average linear kinetic energy   = 1.59151e-20
    Average internal energy         = 1.04767e-20
    Average total energy            = 2.63918e-20

ExecutionTime = 77.4 s  ClockTime = 78 s  Iterations: 35/340  Projected time to finish: 11.2414 min
Time = 0.000381176

deltaT = 1.05882e-05
Mean and max Courant Numbers = 0.199196 0.199196
diagonal:  Solving for rho, Initial residual = 0, Final residual = 0, No Iterations 0
diagonal:  Solving for rhoUx, Initial residual = 0, Final residual = 0, No Iterations 0
diagonal:  Solving for rhoE, Initial residual = 0, Final residual = 0, No Iterations 0
    Collisions                      = 1630197
    Acceptance rate                 = 0.518613

Cloud name: dsmc
    Number of dsmc particles        = 87951
    Number of molecules             = 3.51804e+22
    Mass in system                  = 0.00163589
    Average linear momentum         = (1.25958e-24 2.72536e-27 -6.84296e-26)
   |Average linear momentum|        = 1.26144e-24
    Average linear kinetic energy   = 1.59261e-20
    Average internal energy         = 1.04657e-20
    Average total energy            = 2.63918e-20

ExecutionTime = 79.6 s  ClockTime = 80 s  Iterations: 36/340  Projected time to finish: 11.203 min
Time = 0.000391765

deltaT = 1.05882e-05
Mean and max Courant Numbers = 0.199196 0.199196
diagonal:  Solving for rho, Initial residual = 0, Final residual = 0, No Iterations 0
diagonal:  Solving for rhoUx, Initial residual = 0, Final residual = 0, No Iterations 0
diagonal:  Solving for rhoE, Initial residual = 0, Final residual = 0, No Iterations 0
    Collisions                      = 1631121
    Acceptance rate                 = 0.518877

Cloud name: dsmc
    Number of dsmc particles        = 87951
    Number of molecules             = 3.51804e+22
    Mass in system                  = 0.00163589
    Average linear momentum         = (1.29434e-24 2.72536e-27 -6.84296e-26)
   |Average linear momentum|        = 1.29616e-24
    Average linear kinetic energy   = 1.5898e-20
    Average internal energy         = 1.04938e-20
    Average total energy            = 2.63918e-20

ExecutionTime = 81.71 s  ClockTime = 82 s  Iterations: 37/340  Projected time to finish: 11.1523 min
Time = 0.000402353

deltaT = 1.05882e-05
Mean and max Courant Numbers = 0.199196 0.199196
diagonal:  Solving for rho, Initial residual = 0, Final residual = 0, No Iterations 0
diagonal:  Solving for rhoUx, Initial residual = 0, Final residual = 0, No Iterations 0
diagonal:  Solving for rhoE, Initial residual = 0, Final residual = 0, No Iterations 0
    Collisions                      = 1629849
    Acceptance rate                 = 0.518536

Cloud name: dsmc
    Number of dsmc particles        = 87951
    Number of molecules             = 3.51804e+22
    Mass in system                  = 0.00163589
    Average linear momentum         = (1.32277e-24 2.72536e-27 -6.84296e-26)
   |Average linear momentum|        = 1.32454e-24
    Average linear kinetic energy   = 1.59262e-20
    Average internal energy         = 1.04655e-20
    Average total energy            = 2.63918e-20

ExecutionTime = 83.93 s  ClockTime = 84 s  Iterations: 38/340  Projected time to finish: 11.117 min
Time = 0.000412941

deltaT = 1.05882e-05
Mean and max Courant Numbers = 0.199196 0.199196
diagonal:  Solving for rho, Initial residual = 0, Final residual = 0, No Iterations 0
diagonal:  Solving for rhoUx, Initial residual = 0, Final residual = 0, No Iterations 0
diagonal:  Solving for rhoE, Initial residual = 0, Final residual = 0, No Iterations 0
    Collisions                      = 1628066
    Acceptance rate                 = 0.518048

Cloud name: dsmc
    Number of dsmc particles        = 87951
    Number of molecules             = 3.51804e+22
    Mass in system                  = 0.00163589
    Average linear momentum         = (1.35005e-24 2.72536e-27 -6.84296e-26)
   |Average linear momentum|        = 1.35178e-24
    Average linear kinetic energy   = 1.59378e-20
    Average internal energy         = 1.0454e-20
    Average total energy            = 2.63918e-20

ExecutionTime = 86.05 s  ClockTime = 86 s  Iterations: 39/340  Projected time to finish: 11.0688 min
Time = 0.000423529

deltaT = 1.05882e-05
Mean and max Courant Numbers = 0.199196 0.199196
diagonal:  Solving for rho, Initial residual = 0, Final residual = 0, No Iterations 0
diagonal:  Solving for rhoUx, Initial residual = 0, Final residual = 0, No Iterations 0
diagonal:  Solving for rhoE, Initial residual = 0, Final residual = 0, No Iterations 0
    Collisions                      = 1627199
    Acceptance rate                 = 0.517826

Cloud name: dsmc
    Number of dsmc particles        = 87951
    Number of molecules             = 3.51804e+22
    Mass in system                  = 0.00163589
    Average linear momentum         = (1.38e-24 2.72536e-27 -6.84296e-26)
   |Average linear momentum|        = 1.3817e-24
    Average linear kinetic energy   = 1.5868e-20
    Average internal energy         = 1.05238e-20
    Average total energy            = 2.63918e-20

ExecutionTime = 88.21 s  ClockTime = 89 s  Iterations: 40/340  Projected time to finish: 11.0262 min
Time = 0.000434118

deltaT = 1.05882e-05
Mean and max Courant Numbers = 0.199196 0.199196
diagonal:  Solving for rho, Initial residual = 0, Final residual = 0, No Iterations 0
diagonal:  Solving for rhoUx, Initial residual = 0, Final residual = 0, No Iterations 0
diagonal:  Solving for rhoE, Initial residual = 0, Final residual = 0, No Iterations 0
    Collisions                      = 1627639
    Acceptance rate                 = 0.518126

Cloud name: dsmc
    Number of dsmc particles        = 87951
    Number of molecules             = 3.51804e+22
    Mass in system                  = 0.00163589
    Average linear momentum         = (1.40973e-24 2.72536e-27 -6.84296e-26)
   |Average linear momentum|        = 1.4114e-24
    Average linear kinetic energy   = 1.59416e-20
    Average internal energy         = 1.04502e-20
    Average total energy            = 2.63918e-20

ExecutionTime = 90.4 s  ClockTime = 91 s  Iterations: 41/340  Projected time to finish: 10.9876 min
Time = 0.000444706

deltaT = 1.05882e-05
Mean and max Courant Numbers = 0.199196 0.199196
diagonal:  Solving for rho, Initial residual = 0, Final residual = 0, No Iterations 0
diagonal:  Solving for rhoUx, Initial residual = 0, Final residual = 0, No Iterations 0
diagonal:  Solving for rhoE, Initial residual = 0, Final residual = 0, No Iterations 0
    Collisions                      = 1627555
    Acceptance rate                 = 0.517853

Cloud name: dsmc
    Number of dsmc particles        = 87951
    Number of molecules             = 3.51804e+22
    Mass in system                  = 0.00163589
    Average linear momentum         = (1.43323e-24 2.72536e-27 -6.84296e-26)
   |Average linear momentum|        = 1.43486e-24
    Average linear kinetic energy   = 1.59644e-20
    Average internal energy         = 1.04274e-20
    Average total energy            = 2.63918e-20

ExecutionTime = 92.52 s  ClockTime = 93 s  Iterations: 42/340  Projected time to finish: 10.9409 min
Time = 0.000455294

deltaT = 1.05882e-05
Mean and max Courant Numbers = 0.199196 0.199196
diagonal:  Solving for rho, Initial residual = 0, Final residual = 0, No Iterations 0
diagonal:  Solving for rhoUx, Initial residual = 0, Final residual = 0, No Iterations 0
diagonal:  Solving for rhoE, Initial residual = 0, Final residual = 0, No Iterations 0
    Collisions                      = 1626673
    Acceptance rate                 = 0.517179

Cloud name: dsmc
    Number of dsmc particles        = 87951
    Number of molecules             = 3.51804e+22
    Mass in system                  = 0.00163589
    Average linear momentum         = (1.47034e-24 2.72536e-27 -6.84296e-26)
   |Average linear momentum|        = 1.47193e-24
    Average linear kinetic energy   = 1.5907e-20
    Average internal energy         = 1.04848e-20
    Average total energy            = 2.63918e-20

ExecutionTime = 94.73 s  ClockTime = 95 s  Iterations: 43/340  Projected time to finish: 10.905 min
Time = 0.000465882

deltaT = 1.05882e-05
Mean and max Courant Numbers = 0.199196 0.199196
diagonal:  Solving for rho, Initial residual = 0, Final residual = 0, No Iterations 0
diagonal:  Solving for rhoUx, Initial residual = 0, Final residual = 0, No Iterations 0
diagonal:  Solving for rhoE, Initial residual = 0, Final residual = 0, No Iterations 0
    Collisions                      = 1625690
    Acceptance rate                 = 0.517008

Cloud name: dsmc
    Number of dsmc particles        = 87951
    Number of molecules             = 3.51804e+22
    Mass in system                  = 0.00163589
    Average linear momentum         = (1.50041e-24 2.72536e-27 -6.84296e-26)
   |Average linear momentum|        = 1.50197e-24
    Average linear kinetic energy   = 1.59527e-20
    Average internal energy         = 1.04391e-20
    Average total energy            = 2.63918e-20

ExecutionTime = 96.84 s  ClockTime = 97 s  Iterations: 44/340  Projected time to finish: 10.8578 min
Time = 0.000476471

deltaT = 1.05882e-05
Mean and max Courant Numbers = 0.199196 0.199196
diagonal:  Solving for rho, Initial residual = 0, Final residual = 0, No Iterations 0
diagonal:  Solving for rhoUx, Initial residual = 0, Final residual = 0, No Iterations 0
diagonal:  Solving for rhoE, Initial residual = 0, Final residual = 0, No Iterations 0
    Collisions                      = 1626457
    Acceptance rate                 = 0.517443

Cloud name: dsmc
    Number of dsmc particles        = 87951
    Number of molecules             = 3.51804e+22
    Mass in system                  = 0.00163589
    Average linear momentum         = (1.53015e-24 2.72536e-27 -6.84296e-26)
   |Average linear momentum|        = 1.53168e-24
    Average linear kinetic energy   = 1.59186e-20
    Average internal energy         = 1.04732e-20
    Average total energy            = 2.63918e-20

ExecutionTime = 98.95 s  ClockTime = 99 s  Iterations: 45/340  Projected time to finish: 10.8112 min
Time = 0.000487059

deltaT = 1.05882e-05
Mean and max Courant Numbers = 0.199196 0.199196
diagonal:  Solving for rho, Initial residual = 0, Final residual = 0, No Iterations 0
diagonal:  Solving for rhoUx, Initial residual = 0, Final residual = 0, No Iterations 0
diagonal:  Solving for rhoE, Initial residual = 0, Final residual = 0, No Iterations 0
    Collisions                      = 1622073
    Acceptance rate                 = 0.516185

Cloud name: dsmc
    Number of dsmc particles        = 87951
    Number of molecules             = 3.51804e+22
    Mass in system                  = 0.00163589
    Average linear momentum         = (1.55822e-24 2.72536e-27 -6.84296e-26)
   |Average linear momentum|        = 1.55973e-24
    Average linear kinetic energy   = 1.59132e-20
    Average internal energy         = 1.04786e-20
    Average total energy            = 2.63918e-20

ExecutionTime = 101.14 s  ClockTime = 102 s  Iterations: 46/340  Projected time to finish: 10.7736 min
Time = 0.000497647

deltaT = 1.05882e-05
Mean and max Courant Numbers = 0.199196 0.199196
diagonal:  Solving for rho, Initial residual = 0, Final residual = 0, No Iterations 0
diagonal:  Solving for rhoUx, Initial residual = 0, Final residual = 0, No Iterations 0
diagonal:  Solving for rhoE, Initial residual = 0, Final residual = 0, No Iterations 0
    Collisions                      = 1622118
    Acceptance rate                 = 0.516248

Cloud name: dsmc
    Number of dsmc particles        = 87951
    Number of molecules             = 3.51804e+22
    Mass in system                  = 0.00163589
    Average linear momentum         = (1.59152e-24 2.72536e-27 -6.84296e-26)
   |Average linear momentum|        = 1.59299e-24
    Average linear kinetic energy   = 1.5931e-20
    Average internal energy         = 1.04607e-20
    Average total energy            = 2.63918e-20

ExecutionTime = 103.24 s  ClockTime = 104 s  Iterations: 47/340  Projected time to finish: 10.7267 min
Time = 0.000508235

deltaT = 1.05882e-05
Mean and max Courant Numbers = 0.199196 0.199196
diagonal:  Solving for rho, Initial residual = 0, Final residual = 0, No Iterations 0
diagonal:  Solving for rhoUx, Initial residual = 0, Final residual = 0, No Iterations 0
diagonal:  Solving for rhoE, Initial residual = 0, Final residual = 0, No Iterations 0
    Collisions                      = 1621100
    Acceptance rate                 = 0.515934

Cloud name: dsmc
    Number of dsmc particles        = 87951
    Number of molecules             = 3.51804e+22
    Mass in system                  = 0.00163589
    Average linear momentum         = (1.61729e-24 2.72536e-27 -6.84296e-26)
   |Average linear momentum|        = 1.61874e-24
    Average linear kinetic energy   = 1.59825e-20
    Average internal energy         = 1.04093e-20
    Average total energy            = 2.63918e-20

ExecutionTime = 105.37 s  ClockTime = 106 s  Iterations: 48/340  Projected time to finish: 10.6833 min
Time = 0.000518824

deltaT = 1.05882e-05
Mean and max Courant Numbers = 0.199196 0.199196
diagonal:  Solving for rho, Initial residual = 0, Final residual = 0, No Iterations 0
diagonal:  Solving for rhoUx, Initial residual = 0, Final residual = 0, No Iterations 0
diagonal:  Solving for rhoE, Initial residual = 0, Final residual = 0, No Iterations 0
    Collisions                      = 1621064
    Acceptance rate                 = 0.515849

Cloud name: dsmc
    Number of dsmc particles        = 87951
    Number of molecules             = 3.51804e+22
    Mass in system                  = 0.00163589
    Average linear momentum         = (1.65418e-24 2.72536e-27 -6.84296e-26)
   |Average linear momentum|        = 1.65559e-24
    Average linear kinetic energy   = 1.58939e-20
    Average internal energy         = 1.04979e-20
    Average total energy            = 2.63918e-20

ExecutionTime = 107.59 s  ClockTime = 108 s  Iterations: 49/340  Projected time to finish: 10.6492 min
Time = 0.000529412

deltaT = 1.05882e-05
Mean and max Courant Numbers = 0.199196 0.199196
diagonal:  Solving for rho, Initial residual = 0, Final residual = 0, No Iterations 0
diagonal:  Solving for rhoUx, Initial residual = 0, Final residual = 0, No Iterations 0
diagonal:  Solving for rhoE, Initial residual = 0, Final residual = 0, No Iterations 0
    Collisions                      = 1619887
    Acceptance rate                 = 0.515482

Cloud name: dsmc
    Number of dsmc particles        = 87951
    Number of molecules             = 3.51804e+22
    Mass in system                  = 0.00163589
    Average linear momentum         = (1.68406e-24 2.72536e-27 -6.84296e-26)
   |Average linear momentum|        = 1.68546e-24
    Average linear kinetic energy   = 1.59626e-20
    Average internal energy         = 1.04292e-20
    Average total energy            = 2.63918e-20

ExecutionTime = 109.73 s  ClockTime = 110 s  Iterations: 50/340  Projected time to finish: 10.6072 min
Time = 0.00054

deltaT = 1.05882e-05
Mean and max Courant Numbers = 0.199196 0.199196
diagonal:  Solving for rho, Initial residual = 0, Final residual = 0, No Iterations 0
diagonal:  Solving for rhoUx, Initial residual = 0, Final residual = 0, No Iterations 0
diagonal:  Solving for rhoE, Initial residual = 0, Final residual = 0, No Iterations 0
    Collisions                      = 1618570
    Acceptance rate                 = 0.515386

Cloud name: dsmc
    Number of dsmc particles        = 87951
    Number of molecules             = 3.51804e+22
    Mass in system                  = 0.00163589
    Average linear momentum         = (1.71743e-24 2.72536e-27 -6.84296e-26)
   |Average linear momentum|        = 1.71879e-24
    Average linear kinetic energy   = 1.58818e-20
    Average internal energy         = 1.051e-20
    Average total energy            = 2.63918e-20

ExecutionTime = 111.92 s  ClockTime = 112 s  Iterations: 51/340  Projected time to finish: 10.5702 min
Time = 0.000550588

deltaT = 1.05882e-05
Mean and max Courant Numbers = 0.199196 0.199196
diagonal:  Solving for rho, Initial residual = 0, Final residual = 0, No Iterations 0
diagonal:  Solving for rhoUx, Initial residual = 0, Final residual = 0, No Iterations 0
diagonal:  Solving for rhoE, Initial residual = 0, Final residual = 0, No Iterations 0
    Collisions                      = 1617447
    Acceptance rate                 = 0.51549

Cloud name: dsmc
    Number of dsmc particles        = 87951
    Number of molecules             = 3.51804e+22
    Mass in system                  = 0.00163589
    Average linear momentum         = (1.74918e-24 2.72536e-27 -6.84296e-26)
   |Average linear momentum|        = 1.75052e-24
    Average linear kinetic energy   = 1.59284e-20
    Average internal energy         = 1.04634e-20
    Average total energy            = 2.63918e-20

ExecutionTime = 114.04 s  ClockTime = 114 s  Iterations: 52/340  Projected time to finish: 10.5268 min
Time = 0.000561176

deltaT = 1.05882e-05
Mean and max Courant Numbers = 0.199196 0.199196
diagonal:  Solving for rho, Initial residual = 0, Final residual = 0, No Iterations 0
diagonal:  Solving for rhoUx, Initial residual = 0, Final residual = 0, No Iterations 0
diagonal:  Solving for rhoE, Initial residual = 0, Final residual = 0, No Iterations 0
    Collisions                      = 1617167
    Acceptance rate                 = 0.515251

Cloud name: dsmc
    Number of dsmc particles        = 87951
    Number of molecules             = 3.51804e+22
    Mass in system                  = 0.00163589
    Average linear momentum         = (1.7674e-24 2.72536e-27 -6.84296e-26)
   |Average linear momentum|        = 1.76873e-24
    Average linear kinetic energy   = 1.59606e-20
    Average internal energy         = 1.04312e-20
    Average total energy            = 2.63918e-20

ExecutionTime = 116.15 s  ClockTime = 117 s  Iterations: 53/340  Projected time to finish: 10.4827 min
Time = 0.000571765

deltaT = 1.05882e-05
Mean and max Courant Numbers = 0.199196 0.199196
diagonal:  Solving for rho, Initial residual = 0, Final residual = 0, No Iterations 0
diagonal:  Solving for rhoUx, Initial residual = 0, Final residual = 0, No Iterations 0
diagonal:  Solving for rhoE, Initial residual = 0, Final residual = 0, No Iterations 0
    Collisions                      = 1615006
    Acceptance rate                 = 0.515027

Cloud name: dsmc
    Number of dsmc particles        = 87951
    Number of molecules             = 3.51804e+22
    Mass in system                  = 0.00163589
    Average linear momentum         = (1.80021e-24 2.72536e-27 -6.84296e-26)
   |Average linear momentum|        = 1.80152e-24
    Average linear kinetic energy   = 1.59563e-20
    Average internal energy         = 1.04355e-20
    Average total energy            = 2.63918e-20

ExecutionTime = 118.33 s  ClockTime = 119 s  Iterations: 54/340  Projected time to finish: 10.4452 min
Time = 0.000582353

deltaT = 1.05882e-05
Mean and max Courant Numbers = 0.199196 0.199196
diagonal:  Solving for rho, Initial residual = 0, Final residual = 0, No Iterations 0
diagonal:  Solving for rhoUx, Initial residual = 0, Final residual = 0, No Iterations 0
diagonal:  Solving for rhoE, Initial residual = 0, Final residual = 0, No Iterations 0
    Collisions                      = 1613806
    Acceptance rate                 = 0.514699

Cloud name: dsmc
    Number of dsmc particles        = 87951
    Number of molecules             = 3.51804e+22
    Mass in system                  = 0.00163589
    Average linear momentum         = (1.83038e-24 2.72536e-27 -6.84296e-26)
   |Average linear momentum|        = 1.83166e-24
    Average linear kinetic energy   = 1.59271e-20
    Average internal energy         = 1.04647e-20
    Average total energy            = 2.63918e-20

ExecutionTime = 120.47 s  ClockTime = 121 s  Iterations: 55/340  Projected time to finish: 10.4042 min
Time = 0.000592941

deltaT = 1.05882e-05
Mean and max Courant Numbers = 0.199196 0.199196
diagonal:  Solving for rho, Initial residual = 0, Final residual = 0, No Iterations 0
diagonal:  Solving for rhoUx, Initial residual = 0, Final residual = 0, No Iterations 0
diagonal:  Solving for rhoE, Initial residual = 0, Final residual = 0, No Iterations 0
    Collisions                      = 1613123
    Acceptance rate                 = 0.51465

Cloud name: dsmc
    Number of dsmc particles        = 87951
    Number of molecules             = 3.51804e+22
    Mass in system                  = 0.00163589
    Average linear momentum         = (1.86058e-24 2.72536e-27 -6.84296e-26)
   |Average linear momentum|        = 1.86184e-24
    Average linear kinetic energy   = 1.59628e-20
    Average internal energy         = 1.0429e-20
    Average total energy            = 2.63918e-20

ExecutionTime = 122.57 s  ClockTime = 123 s  Iterations: 56/340  Projected time to finish: 10.3601 min
Time = 0.000603529

deltaT = 1.05882e-05
Mean and max Courant Numbers = 0.199196 0.199196
diagonal:  Solving for rho, Initial residual = 0, Final residual = 0, No Iterations 0
diagonal:  Solving for rhoUx, Initial residual = 0, Final residual = 0, No Iterations 0
diagonal:  Solving for rhoE, Initial residual = 0, Final residual = 0, No Iterations 0
    Collisions                      = 1612654
    Acceptance rate                 = 0.51454

Cloud name: dsmc
    Number of dsmc particles        = 87951
    Number of molecules             = 3.51804e+22
    Mass in system                  = 0.00163589
    Average linear momentum         = (1.90756e-24 2.72536e-27 -6.84296e-26)
   |Average linear momentum|        = 1.90879e-24
    Average linear kinetic energy   = 1.59451e-20
    Average internal energy         = 1.04466e-20
    Average total energy            = 2.63918e-20

ExecutionTime = 124.82 s  ClockTime = 125 s  Iterations: 57/340  Projected time to finish: 10.3287 min
Time = 0.000614118

deltaT = 1.05882e-05
Mean and max Courant Numbers = 0.199196 0.199196
diagonal:  Solving for rho, Initial residual = 0, Final residual = 0, No Iterations 0
diagonal:  Solving for rhoUx, Initial residual = 0, Final residual = 0, No Iterations 0
diagonal:  Solving for rhoE, Initial residual = 0, Final residual = 0, No Iterations 0
    Collisions                      = 1613364
    Acceptance rate                 = 0.514598

Cloud name: dsmc
    Number of dsmc particles        = 87951
    Number of molecules             = 3.51804e+22
    Mass in system                  = 0.00163589
    Average linear momentum         = (1.93753e-24 2.72536e-27 -6.84296e-26)
   |Average linear momentum|        = 1.93874e-24
    Average linear kinetic energy   = 1.59321e-20
    Average internal energy         = 1.04597e-20
    Average total energy            = 2.63918e-20

ExecutionTime = 126.91 s  ClockTime = 127 s  Iterations: 58/340  Projected time to finish: 10.2841 min
Time = 0.000624706

deltaT = 1.05882e-05
Mean and max Courant Numbers = 0.199196 0.199196
diagonal:  Solving for rho, Initial residual = 0, Final residual = 0, No Iterations 0
diagonal:  Solving for rhoUx, Initial residual = 0, Final residual = 0, No Iterations 0
diagonal:  Solving for rhoE, Initial residual = 0, Final residual = 0, No Iterations 0
    Collisions                      = 1610960
    Acceptance rate                 = 0.513556

Cloud name: dsmc
    Number of dsmc particles        = 87951
    Number of molecules             = 3.51804e+22
    Mass in system                  = 0.00163589
    Average linear momentum         = (1.96304e-24 2.72536e-27 -6.84296e-26)
   |Average linear momentum|        = 1.96424e-24
    Average linear kinetic energy   = 1.59538e-20
    Average internal energy         = 1.0438e-20
    Average total energy            = 2.63918e-20

ExecutionTime = 129.11 s  ClockTime = 130 s  Iterations: 59/340  Projected time to finish: 10.2486 min
Time = 0.000635294

deltaT = 1.05882e-05
Mean and max Courant Numbers = 0.199196 0.199196
diagonal:  Solving for rho, Initial residual = 0, Final residual = 0, No Iterations 0
diagonal:  Solving for rhoUx, Initial residual = 0, Final residual = 0, No Iterations 0
diagonal:  Solving for rhoE, Initial residual = 0, Final residual = 0, No Iterations 0
    Collisions                      = 1610745
    Acceptance rate                 = 0.51383

Cloud name: dsmc
    Number of dsmc particles        = 87951
    Number of molecules             = 3.51804e+22
    Mass in system                  = 0.00163589
    Average linear momentum         = (1.99776e-24 2.72536e-27 -6.84296e-26)
   |Average linear momentum|        = 1.99893e-24
    Average linear kinetic energy   = 1.59448e-20
    Average internal energy         = 1.0447e-20
    Average total energy            = 2.63918e-20

ExecutionTime = 131.24 s  ClockTime = 132 s  Iterations: 60/340  Projected time to finish: 10.2076 min
Time = 0.000645882

deltaT = 1.05882e-05
Mean and max Courant Numbers = 0.199196 0.199196
diagonal:  Solving for rho, Initial residual = 0, Final residual = 0, No Iterations 0
diagonal:  Solving for rhoUx, Initial residual = 0, Final residual = 0, No Iterations 0
diagonal:  Solving for rhoE, Initial residual = 0, Final residual = 0, No Iterations 0
    Collisions                      = 1609047
    Acceptance rate                 = 0.513407

Cloud name: dsmc
    Number of dsmc particles        = 87951
    Number of molecules             = 3.51804e+22
    Mass in system                  = 0.00163589
    Average linear momentum         = (2.02593e-24 2.72536e-27 -6.84296e-26)
   |Average linear momentum|        = 2.02708e-24
    Average linear kinetic energy   = 1.59792e-20
    Average internal energy         = 1.04126e-20
    Average total energy            = 2.63918e-20

ExecutionTime = 133.33 s  ClockTime = 134 s  Iterations: 61/340  Projected time to finish: 10.1637 min
Time = 0.000656471

deltaT = 1.05882e-05
Mean and max Courant Numbers = 0.199196 0.199196
diagonal:  Solving for rho, Initial residual = 0, Final residual = 0, No Iterations 0
diagonal:  Solving for rhoUx, Initial residual = 0, Final residual = 0, No Iterations 0
diagonal:  Solving for rhoE, Initial residual = 0, Final residual = 0, No Iterations 0
    Collisions                      = 1607892
    Acceptance rate                 = 0.513326

Cloud name: dsmc
    Number of dsmc particles        = 87951
    Number of molecules             = 3.51804e+22
    Mass in system                  = 0.00163589
    Average linear momentum         = (2.05445e-24 2.72536e-27 -6.84296e-26)
   |Average linear momentum|        = 2.05559e-24
    Average linear kinetic energy   = 1.59343e-20
    Average internal energy         = 1.04575e-20
    Average total energy            = 2.63918e-20

ExecutionTime = 135.57 s  ClockTime = 136 s  Iterations: 62/340  Projected time to finish: 10.1313 min
Time = 0.000667059

deltaT = 1.05882e-05
Mean and max Courant Numbers = 0.199196 0.199196
diagonal:  Solving for rho, Initial residual = 0, Final residual = 0, No Iterations 0
diagonal:  Solving for rhoUx, Initial residual = 0, Final residual = 0, No Iterations 0
diagonal:  Solving for rhoE, Initial residual = 0, Final residual = 0, No Iterations 0
    Collisions                      = 1606642
    Acceptance rate                 = 0.512615

Cloud name: dsmc
    Number of dsmc particles        = 87951
    Number of molecules             = 3.51804e+22
    Mass in system                  = 0.00163589
    Average linear momentum         = (2.08895e-24 2.72536e-27 -6.84296e-26)
   |Average linear momentum|        = 2.09007e-24
    Average linear kinetic energy   = 1.59723e-20
    Average internal energy         = 1.04195e-20
    Average total energy            = 2.63918e-20

ExecutionTime = 137.68 s  ClockTime = 138 s  Iterations: 63/340  Projected time to finish: 10.0892 min
Time = 0.000677647

deltaT = 1.05882e-05
Mean and max Courant Numbers = 0.199196 0.199196
diagonal:  Solving for rho, Initial residual = 0, Final residual = 0, No Iterations 0
diagonal:  Solving for rhoUx, Initial residual = 0, Final residual = 0, No Iterations 0
diagonal:  Solving for rhoE, Initial residual = 0, Final residual = 0, No Iterations 0
    Collisions                      = 1607508
    Acceptance rate                 = 0.512968

Cloud name: dsmc
    Number of dsmc particles        = 87951
    Number of molecules             = 3.51804e+22
    Mass in system                  = 0.00163589
    Average linear momentum         = (2.12168e-24 2.72536e-27 -6.84296e-26)
   |Average linear momentum|        = 2.12279e-24
    Average linear kinetic energy   = 1.59656e-20
    Average internal energy         = 1.04262e-20
    Average total energy            = 2.63918e-20

ExecutionTime = 139.8 s  ClockTime = 140 s  Iterations: 64/340  Projected time to finish: 10.0481 min
Time = 0.000688235

deltaT = 1.05882e-05
Mean and max Courant Numbers = 0.199196 0.199196
diagonal:  Solving for rho, Initial residual = 0, Final residual = 0, No Iterations 0
diagonal:  Solving for rhoUx, Initial residual = 0, Final residual = 0, No Iterations 0
diagonal:  Solving for rhoE, Initial residual = 0, Final residual = 0, No Iterations 0
    Collisions                      = 1606211
    Acceptance rate                 = 0.512642

Cloud name: dsmc
    Number of dsmc particles        = 87951
    Number of molecules             = 3.51804e+22
    Mass in system                  = 0.00163589
    Average linear momentum         = (2.15627e-24 2.72536e-27 -6.84296e-26)
   |Average linear momentum|        = 2.15735e-24
    Average linear kinetic energy   = 1.60159e-20
    Average internal energy         = 1.03759e-20
    Average total energy            = 2.63918e-20

ExecutionTime = 141.97 s  ClockTime = 142 s  Iterations: 65/340  Projected time to finish: 10.0107 min
Time = 0.000698824

deltaT = 1.05882e-05
Mean and max Courant Numbers = 0.199196 0.199196
diagonal:  Solving for rho, Initial residual = 0, Final residual = 0, No Iterations 0
diagonal:  Solving for rhoUx, Initial residual = 0, Final residual = 0, No Iterations 0
diagonal:  Solving for rhoE, Initial residual = 0, Final residual = 0, No Iterations 0
    Collisions                      = 1605736
    Acceptance rate                 = 0.513103

Cloud name: dsmc
    Number of dsmc particles        = 87951
    Number of molecules             = 3.51804e+22
    Mass in system                  = 0.00163589
    Average linear momentum         = (2.18776e-24 2.72536e-27 -6.84296e-26)
   |Average linear momentum|        = 2.18883e-24
    Average linear kinetic energy   = 1.59726e-20
    Average internal energy         = 1.04192e-20
    Average total energy            = 2.63918e-20

ExecutionTime = 144.1 s  ClockTime = 145 s  Iterations: 66/340  Projected time to finish: 9.97056 min
Time = 0.000709412

deltaT = 1.05882e-05
Mean and max Courant Numbers = 0.199196 0.199196
diagonal:  Solving for rho, Initial residual = 0, Final residual = 0, No Iterations 0
diagonal:  Solving for rhoUx, Initial residual = 0, Final residual = 0, No Iterations 0
diagonal:  Solving for rhoE, Initial residual = 0, Final residual = 0, No Iterations 0
    Collisions                      = 1604334
    Acceptance rate                 = 0.512539

Cloud name: dsmc
    Number of dsmc particles        = 87951
    Number of molecules             = 3.51804e+22
    Mass in system                  = 0.00163589
    Average linear momentum         = (2.22299e-24 2.72536e-27 -6.84296e-26)
   |Average linear momentum|        = 2.22405e-24
    Average linear kinetic energy   = 1.5966e-20
    Average internal energy         = 1.04257e-20
    Average total energy            = 2.63918e-20

ExecutionTime = 146.21 s  ClockTime = 147 s  Iterations: 67/340  Projected time to finish: 9.92919 min
Time = 0.00072

deltaT = 1.05882e-05
Mean and max Courant Numbers = 0.199196 0.199196
diagonal:  Solving for rho, Initial residual = 0, Final residual = 0, No Iterations 0
diagonal:  Solving for rhoUx, Initial residual = 0, Final residual = 0, No Iterations 0
diagonal:  Solving for rhoE, Initial residual = 0, Final residual = 0, No Iterations 0
    Collisions                      = 1605111
    Acceptance rate                 = 0.512845

Cloud name: dsmc
    Number of dsmc particles        = 87951
    Number of molecules             = 3.51804e+22
    Mass in system                  = 0.00163589
    Average linear momentum         = (2.25136e-24 2.72536e-27 -6.84296e-26)
   |Average linear momentum|        = 2.2524e-24
    Average linear kinetic energy   = 1.60052e-20
    Average internal energy         = 1.03866e-20
    Average total energy            = 2.63918e-20

ExecutionTime = 149.07 s  ClockTime = 150 s  Iterations: 68/340  Projected time to finish: 9.938 min
Calculating dsmcFieldsMod.
    Calculating UMean field.
    Calculating translationalT field.
    Calculating internalT field.
    Calculating overallT field.
    Calculating pressure field.
    mag(UMean) max/min : 511.578 8.90723
    translationalT max/min : 1069.58 241.12
    internalT max/min : 1061.66 211.116
    overallT max/min : 1002.92 239.953
    p max/min : 139.276 6.77976
dsmcFieldsMod written.

Time = 0.000730588

deltaT = 1.05882e-05
Mean and max Courant Numbers = 0.199196 0.199196
diagonal:  Solving for rho, Initial residual = 0, Final residual = 0, No Iterations 0
diagonal:  Solving for rhoUx, Initial residual = 0, Final residual = 0, No Iterations 0
diagonal:  Solving for rhoE, Initial residual = 0, Final residual = 0, No Iterations 0
    Collisions                      = 1603783
    Acceptance rate                 = 0.512935

Cloud name: dsmc
    Number of dsmc particles        = 87951
    Number of molecules             = 3.51804e+22
    Mass in system                  = 0.00163589
    Average linear momentum         = (2.26716e-24 2.72536e-27 -6.84296e-26)
   |Average linear momentum|        = 2.26819e-24
    Average linear kinetic energy   = 1.60176e-20
    Average internal energy         = 1.03742e-20
    Average total energy            = 2.63918e-20

ExecutionTime = 151.18 s  ClockTime = 152 s  Iterations: 69/340  Projected time to finish: 9.89608 min
Time = 0.000741176

deltaT = 1.05882e-05
Mean and max Courant Numbers = 0.199196 0.199196
diagonal:  Solving for rho, Initial residual = 0, Final residual = 0, No Iterations 0
diagonal:  Solving for rhoUx, Initial residual = 0, Final residual = 0, No Iterations 0
diagonal:  Solving for rhoE, Initial residual = 0, Final residual = 0, No Iterations 0
    Collisions                      = 1601098
    Acceptance rate                 = 0.51251

Cloud name: dsmc
    Number of dsmc particles        = 87951
    Number of molecules             = 3.51804e+22
    Mass in system                  = 0.00163589
    Average linear momentum         = (2.30356e-24 2.72536e-27 -6.84296e-26)
   |Average linear momentum|        = 2.30458e-24
    Average linear kinetic energy   = 1.60115e-20
    Average internal energy         = 1.03802e-20
    Average total energy            = 2.63918e-20

ExecutionTime = 153.32 s  ClockTime = 154 s  Iterations: 70/340  Projected time to finish: 9.85629 min
Time = 0.000751765

deltaT = 1.05882e-05
Mean and max Courant Numbers = 0.199196 0.199196
diagonal:  Solving for rho, Initial residual = 0, Final residual = 0, No Iterations 0
diagonal:  Solving for rhoUx, Initial residual = 0, Final residual = 0, No Iterations 0
diagonal:  Solving for rhoE, Initial residual = 0, Final residual = 0, No Iterations 0
    Collisions                      = 1602751
    Acceptance rate                 = 0.51312

Cloud name: dsmc
    Number of dsmc particles        = 87951
    Number of molecules             = 3.51804e+22
    Mass in system                  = 0.00163589
    Average linear momentum         = (2.32376e-24 2.72536e-27 -6.84296e-26)
   |Average linear momentum|        = 2.32477e-24
    Average linear kinetic energy   = 1.59656e-20
    Average internal energy         = 1.04262e-20
    Average total energy            = 2.63918e-20

ExecutionTime = 155.46 s  ClockTime = 156 s  Iterations: 71/340  Projected time to finish: 9.81661 min
Time = 0.000762353

deltaT = 1.05882e-05
Mean and max Courant Numbers = 0.199196 0.199196
diagonal:  Solving for rho, Initial residual = 0, Final residual = 0, No Iterations 0
diagonal:  Solving for rhoUx, Initial residual = 0, Final residual = 0, No Iterations 0
diagonal:  Solving for rhoE, Initial residual = 0, Final residual = 0, No Iterations 0
    Collisions                      = 1597318
    Acceptance rate                 = 0.511951

Cloud name: dsmc
    Number of dsmc particles        = 87951
    Number of molecules             = 3.51804e+22
    Mass in system                  = 0.00163589
    Average linear momentum         = (2.35728e-24 2.72536e-27 -6.84296e-26)
   |Average linear momentum|        = 2.35828e-24
    Average linear kinetic energy   = 1.59973e-20
    Average internal energy         = 1.03945e-20
    Average total energy            = 2.63918e-20

ExecutionTime = 157.54 s  ClockTime = 158 s  Iterations: 72/340  Projected time to finish: 9.77331 min
Time = 0.000772941

deltaT = 1.05882e-05
Mean and max Courant Numbers = 0.199196 0.199196
diagonal:  Solving for rho, Initial residual = 0, Final residual = 0, No Iterations 0
diagonal:  Solving for rhoUx, Initial residual = 0, Final residual = 0, No Iterations 0
diagonal:  Solving for rhoE, Initial residual = 0, Final residual = 0, No Iterations 0
    Collisions                      = 1596995
    Acceptance rate                 = 0.511794

Cloud name: dsmc
    Number of dsmc particles        = 87951
    Number of molecules             = 3.51804e+22
    Mass in system                  = 0.00163589
    Average linear momentum         = (2.39868e-24 2.72536e-27 -6.84296e-26)
   |Average linear momentum|        = 2.39966e-24
    Average linear kinetic energy   = 1.59861e-20
    Average internal energy         = 1.04057e-20
    Average total energy            = 2.63918e-20

ExecutionTime = 159.65 s  ClockTime = 160 s  Iterations: 73/340  Projected time to finish: 9.73209 min
Time = 0.000783529

deltaT = 1.05882e-05
Mean and max Courant Numbers = 0.199196 0.199196
diagonal:  Solving for rho, Initial residual = 0, Final residual = 0, No Iterations 0
diagonal:  Solving for rhoUx, Initial residual = 0, Final residual = 0, No Iterations 0
diagonal:  Solving for rhoE, Initial residual = 0, Final residual = 0, No Iterations 0
    Collisions                      = 1597095
    Acceptance rate                 = 0.511811

Cloud name: dsmc
    Number of dsmc particles        = 87951
    Number of molecules             = 3.51804e+22
    Mass in system                  = 0.00163589
    Average linear momentum         = (2.42706e-24 2.72536e-27 -6.84296e-26)
   |Average linear momentum|        = 2.42802e-24
    Average linear kinetic energy   = 1.59915e-20
    Average internal energy         = 1.04003e-20
    Average total energy            = 2.63918e-20

ExecutionTime = 161.82 s  ClockTime = 162 s  Iterations: 74/340  Projected time to finish: 9.69462 min
Time = 0.000794118

deltaT = 1.05882e-05
Mean and max Courant Numbers = 0.199196 0.199196
diagonal:  Solving for rho, Initial residual = 0, Final residual = 0, No Iterations 0
diagonal:  Solving for rhoUx, Initial residual = 0, Final residual = 0, No Iterations 0
diagonal:  Solving for rhoE, Initial residual = 0, Final residual = 0, No Iterations 0
    Collisions                      = 1594692
    Acceptance rate                 = 0.511593

Cloud name: dsmc
    Number of dsmc particles        = 87951
    Number of molecules             = 3.51804e+22
    Mass in system                  = 0.00163589
    Average linear momentum         = (2.45741e-24 2.72536e-27 -6.84296e-26)
   |Average linear momentum|        = 2.45836e-24
    Average linear kinetic energy   = 1.6029e-20
    Average internal energy         = 1.03628e-20
    Average total energy            = 2.63918e-20

ExecutionTime = 163.91 s  ClockTime = 164 s  Iterations: 75/340  Projected time to finish: 9.65248 min
Time = 0.000804706

deltaT = 1.05882e-05
Mean and max Courant Numbers = 0.199196 0.199196
diagonal:  Solving for rho, Initial residual = 0, Final residual = 0, No Iterations 0
diagonal:  Solving for rhoUx, Initial residual = 0, Final residual = 0, No Iterations 0
diagonal:  Solving for rhoE, Initial residual = 0, Final residual = 0, No Iterations 0
    Collisions                      = 1596030
    Acceptance rate                 = 0.511678

Cloud name: dsmc
    Number of dsmc particles        = 87951
    Number of molecules             = 3.51804e+22
    Mass in system                  = 0.00163589
    Average linear momentum         = (2.48636e-24 2.72536e-27 -6.84296e-26)
[...]
diagonal:  Solving for rhoUx, Initial residual = 0, Final residual = 0, No Iterations 0
diagonal:  Solving for rhoE, Initial residual = 0, Final residual = 0, No Iterations 0
    Collisions                      = 1379051
    Acceptance rate                 = 0.500853

Cloud name: dsmc
    Number of dsmc particles        = 87951
    Number of molecules             = 3.51804e+22
    Mass in system                  = 0.00163589
    Average linear momentum         = (9.96125e-24 2.72536e-27 -6.84296e-26)
   |Average linear momentum|        = 9.96149e-24
    Average linear kinetic energy   = 1.65195e-20
    Average internal energy         = 9.87228e-21
    Average total energy            = 2.63918e-20

ExecutionTime = 662.63 s  ClockTime = 665 s  Iterations: 321/340  Projected time to finish: 0.653685 min
Time = 0.00340941

deltaT = 1.05882e-05
Mean and max Courant Numbers = 0.199196 0.199196
diagonal:  Solving for rho, Initial residual = 0, Final residual = 0, No Iterations 0
diagonal:  Solving for rhoUx, Initial residual = 0, Final residual = 0, No Iterations 0
diagonal:  Solving for rhoE, Initial residual = 0, Final residual = 0, No Iterations 0
    Collisions                      = 1377763
    Acceptance rate                 = 0.500493

Cloud name: dsmc
    Number of dsmc particles        = 87951
    Number of molecules             = 3.51804e+22
    Mass in system                  = 0.00163589
    Average linear momentum         = (9.98957e-24 2.72536e-27 -6.84296e-26)
   |Average linear momentum|        = 9.9898e-24
    Average linear kinetic energy   = 1.65598e-20
    Average internal energy         = 9.83199e-21
    Average total energy            = 2.63918e-20

ExecutionTime = 664.63 s  ClockTime = 667 s  Iterations: 322/340  Projected time to finish: 0.61922 min
Time = 0.00342

deltaT = 1.05882e-05
Mean and max Courant Numbers = 0.199196 0.199196
diagonal:  Solving for rho, Initial residual = 0, Final residual = 0, No Iterations 0
diagonal:  Solving for rhoUx, Initial residual = 0, Final residual = 0, No Iterations 0
diagonal:  Solving for rhoE, Initial residual = 0, Final residual = 0, No Iterations 0
    Collisions                      = 1375536
    Acceptance rate                 = 0.500184

Cloud name: dsmc
    Number of dsmc particles        = 87951
    Number of molecules             = 3.51804e+22
    Mass in system                  = 0.00163589
    Average linear momentum         = (1.00158e-23 2.72536e-27 -6.84296e-26)
   |Average linear momentum|        = 1.0016e-23
    Average linear kinetic energy   = 1.65476e-20
    Average internal energy         = 9.84419e-21
    Average total energy            = 2.63918e-20

ExecutionTime = 666.42 s  ClockTime = 668 s  Iterations: 323/340  Projected time to finish: 0.584579 min
Time = 0.00343059

deltaT = 1.05882e-05
Mean and max Courant Numbers = 0.199196 0.199196
diagonal:  Solving for rho, Initial residual = 0, Final residual = 0, No Iterations 0
diagonal:  Solving for rhoUx, Initial residual = 0, Final residual = 0, No Iterations 0
diagonal:  Solving for rhoE, Initial residual = 0, Final residual = 0, No Iterations 0
    Collisions                      = 1375909
    Acceptance rate                 = 0.500293

Cloud name: dsmc
    Number of dsmc particles        = 87951
    Number of molecules             = 3.51804e+22
    Mass in system                  = 0.00163589
    Average linear momentum         = (1.00397e-23 2.72536e-27 -6.84296e-26)
   |Average linear momentum|        = 1.00399e-23
    Average linear kinetic energy   = 1.65275e-20
    Average internal energy         = 9.86433e-21
    Average total energy            = 2.63918e-20

ExecutionTime = 668.22 s  ClockTime = 670 s  Iterations: 324/340  Projected time to finish: 0.549975 min
Time = 0.00344118

deltaT = 1.05882e-05
Mean and max Courant Numbers = 0.199196 0.199196
diagonal:  Solving for rho, Initial residual = 0, Final residual = 0, No Iterations 0
diagonal:  Solving for rhoUx, Initial residual = 0, Final residual = 0, No Iterations 0
diagonal:  Solving for rhoE, Initial residual = 0, Final residual = 0, No Iterations 0
    Collisions                      = 1374332
    Acceptance rate                 = 0.500088

Cloud name: dsmc
    Number of dsmc particles        = 87951
    Number of molecules             = 3.51804e+22
    Mass in system                  = 0.00163589
    Average linear momentum         = (1.007e-23 2.72536e-27 -6.84296e-26)
   |Average linear momentum|        = 1.00703e-23
    Average linear kinetic energy   = 1.65543e-20
    Average internal energy         = 9.83747e-21
    Average total energy            = 2.63918e-20

ExecutionTime = 670.02 s  ClockTime = 672 s  Iterations: 325/340  Projected time to finish: 0.5154 min
Time = 0.00345176

deltaT = 1.05882e-05
Mean and max Courant Numbers = 0.199196 0.199196
diagonal:  Solving for rho, Initial residual = 0, Final residual = 0, No Iterations 0
diagonal:  Solving for rhoUx, Initial residual = 0, Final residual = 0, No Iterations 0
diagonal:  Solving for rhoE, Initial residual = 0, Final residual = 0, No Iterations 0
    Collisions                      = 1374646
    Acceptance rate                 = 0.500539

Cloud name: dsmc
    Number of dsmc particles        = 87951
    Number of molecules             = 3.51804e+22
    Mass in system                  = 0.00163589
    Average linear momentum         = (1.01027e-23 2.72536e-27 -6.84296e-26)
   |Average linear momentum|        = 1.01029e-23
    Average linear kinetic energy   = 1.65617e-20
    Average internal energy         = 9.83013e-21
    Average total energy            = 2.63918e-20

ExecutionTime = 671.92 s  ClockTime = 674 s  Iterations: 326/340  Projected time to finish: 0.480924 min
Time = 0.00346235

deltaT = 1.05882e-05
Mean and max Courant Numbers = 0.199196 0.199196
diagonal:  Solving for rho, Initial residual = 0, Final residual = 0, No Iterations 0
diagonal:  Solving for rhoUx, Initial residual = 0, Final residual = 0, No Iterations 0
diagonal:  Solving for rhoE, Initial residual = 0, Final residual = 0, No Iterations 0
    Collisions                      = 1374273
    Acceptance rate                 = 0.50072

Cloud name: dsmc
    Number of dsmc particles        = 87951
    Number of molecules             = 3.51804e+22
    Mass in system                  = 0.00163589
    Average linear momentum         = (1.01298e-23 2.72536e-27 -6.84296e-26)
   |Average linear momentum|        = 1.013e-23
    Average linear kinetic energy   = 1.6603e-20
    Average internal energy         = 9.78881e-21
    Average total energy            = 2.63918e-20

ExecutionTime = 673.71 s  ClockTime = 676 s  Iterations: 327/340  Projected time to finish: 0.446393 min
Time = 0.00347294

deltaT = 1.05882e-05
Mean and max Courant Numbers = 0.199196 0.199196
diagonal:  Solving for rho, Initial residual = 0, Final residual = 0, No Iterations 0
diagonal:  Solving for rhoUx, Initial residual = 0, Final residual = 0, No Iterations 0
diagonal:  Solving for rhoE, Initial residual = 0, Final residual = 0, No Iterations 0
    Collisions                      = 1372740
    Acceptance rate                 = 0.500478

Cloud name: dsmc
    Number of dsmc particles        = 87951
    Number of molecules             = 3.51804e+22
    Mass in system                  = 0.00163589
    Average linear momentum         = (1.01611e-23 2.72536e-27 -6.84296e-26)
   |Average linear momentum|        = 1.01614e-23
    Average linear kinetic energy   = 1.65596e-20
    Average internal energy         = 9.83222e-21
    Average total energy            = 2.63918e-20

ExecutionTime = 675.49 s  ClockTime = 678 s  Iterations: 328/340  Projected time to finish: 0.411884 min
Time = 0.00348353

deltaT = 1.05882e-05
Mean and max Courant Numbers = 0.199196 0.199196
diagonal:  Solving for rho, Initial residual = 0, Final residual = 0, No Iterations 0
diagonal:  Solving for rhoUx, Initial residual = 0, Final residual = 0, No Iterations 0
diagonal:  Solving for rhoE, Initial residual = 0, Final residual = 0, No Iterations 0
    Collisions                      = 1372250
    Acceptance rate                 = 0.500839

Cloud name: dsmc
    Number of dsmc particles        = 87951
    Number of molecules             = 3.51804e+22
    Mass in system                  = 0.00163589
    Average linear momentum         = (1.01926e-23 2.72536e-27 -6.84296e-26)
   |Average linear momentum|        = 1.01928e-23
    Average linear kinetic energy   = 1.65793e-20
    Average internal energy         = 9.81244e-21
    Average total energy            = 2.63918e-20

ExecutionTime = 677.38 s  ClockTime = 679 s  Iterations: 329/340  Projected time to finish: 0.377466 min
Time = 0.00349412

deltaT = 1.05882e-05
Mean and max Courant Numbers = 0.199196 0.199196
diagonal:  Solving for rho, Initial residual = 0, Final residual = 0, No Iterations 0
diagonal:  Solving for rhoUx, Initial residual = 0, Final residual = 0, No Iterations 0
diagonal:  Solving for rhoE, Initial residual = 0, Final residual = 0, No Iterations 0
    Collisions                      = 1370123
    Acceptance rate                 = 0.50024

Cloud name: dsmc
    Number of dsmc particles        = 87951
    Number of molecules             = 3.51804e+22
    Mass in system                  = 0.00163589
    Average linear momentum         = (1.02301e-23 2.72536e-27 -6.84296e-26)
   |Average linear momentum|        = 1.02303e-23
    Average linear kinetic energy   = 1.65343e-20
    Average internal energy         = 9.85746e-21
    Average total energy            = 2.63918e-20

ExecutionTime = 679.19 s  ClockTime = 681 s  Iterations: 330/340  Projected time to finish: 0.343025 min
Time = 0.00350471

deltaT = 1.05882e-05
Mean and max Courant Numbers = 0.199196 0.199196
diagonal:  Solving for rho, Initial residual = 0, Final residual = 0, No Iterations 0
diagonal:  Solving for rhoUx, Initial residual = 0, Final residual = 0, No Iterations 0
diagonal:  Solving for rhoE, Initial residual = 0, Final residual = 0, No Iterations 0
    Collisions                      = 1370358
    Acceptance rate                 = 0.500323

Cloud name: dsmc
    Number of dsmc particles        = 87951
    Number of molecules             = 3.51804e+22
    Mass in system                  = 0.00163589
    Average linear momentum         = (1.02549e-23 2.72536e-27 -6.84296e-26)
   |Average linear momentum|        = 1.02552e-23
    Average linear kinetic energy   = 1.66092e-20
    Average internal energy         = 9.78256e-21
    Average total energy            = 2.63918e-20

ExecutionTime = 680.94 s  ClockTime = 683 s  Iterations: 331/340  Projected time to finish: 0.308583 min
Time = 0.00351529

deltaT = 1.05882e-05
Mean and max Courant Numbers = 0.199196 0.199196
diagonal:  Solving for rho, Initial residual = 0, Final residual = 0, No Iterations 0
diagonal:  Solving for rhoUx, Initial residual = 0, Final residual = 0, No Iterations 0
diagonal:  Solving for rhoE, Initial residual = 0, Final residual = 0, No Iterations 0
    Collisions                      = 1368560
    Acceptance rate                 = 0.500057

Cloud name: dsmc
    Number of dsmc particles        = 87951
    Number of molecules             = 3.51804e+22
    Mass in system                  = 0.00163589
    Average linear momentum         = (1.02871e-23 2.72536e-27 -6.84296e-26)
   |Average linear momentum|        = 1.02874e-23
    Average linear kinetic energy   = 1.65208e-20
    Average internal energy         = 9.87098e-21
    Average total energy            = 2.63918e-20

ExecutionTime = 682.74 s  ClockTime = 685 s  Iterations: 332/340  Projected time to finish: 0.274193 min
Time = 0.00352588

deltaT = 1.05882e-05
Mean and max Courant Numbers = 0.199196 0.199196
diagonal:  Solving for rho, Initial residual = 0, Final residual = 0, No Iterations 0
diagonal:  Solving for rhoUx, Initial residual = 0, Final residual = 0, No Iterations 0
diagonal:  Solving for rhoE, Initial residual = 0, Final residual = 0, No Iterations 0
    Collisions                      = 1365894
    Acceptance rate                 = 0.499741

Cloud name: dsmc
    Number of dsmc particles        = 87951
    Number of molecules             = 3.51804e+22
    Mass in system                  = 0.00163589
    Average linear momentum         = (1.03207e-23 2.72536e-27 -6.84296e-26)
   |Average linear momentum|        = 1.0321e-23
    Average linear kinetic energy   = 1.656e-20
    Average internal energy         = 9.83177e-21
    Average total energy            = 2.63918e-20

ExecutionTime = 684.63 s  ClockTime = 687 s  Iterations: 333/340  Projected time to finish: 0.23986 min
Time = 0.00353647

deltaT = 1.05882e-05
Mean and max Courant Numbers = 0.199196 0.199196
diagonal:  Solving for rho, Initial residual = 0, Final residual = 0, No Iterations 0
diagonal:  Solving for rhoUx, Initial residual = 0, Final residual = 0, No Iterations 0
diagonal:  Solving for rhoE, Initial residual = 0, Final residual = 0, No Iterations 0
    Collisions                      = 1366554
    Acceptance rate                 = 0.500322

Cloud name: dsmc
    Number of dsmc particles        = 87951
    Number of molecules             = 3.51804e+22
    Mass in system                  = 0.00163589
    Average linear momentum         = (1.03552e-23 2.72536e-27 -6.84296e-26)
   |Average linear momentum|        = 1.03554e-23
    Average linear kinetic energy   = 1.65452e-20
    Average internal energy         = 9.84662e-21
    Average total energy            = 2.63918e-20

ExecutionTime = 686.4 s  ClockTime = 688 s  Iterations: 334/340  Projected time to finish: 0.205509 min
Time = 0.00354706

deltaT = 1.05882e-05
Mean and max Courant Numbers = 0.199196 0.199196
diagonal:  Solving for rho, Initial residual = 0, Final residual = 0, No Iterations 0
diagonal:  Solving for rhoUx, Initial residual = 0, Final residual = 0, No Iterations 0
diagonal:  Solving for rhoE, Initial residual = 0, Final residual = 0, No Iterations 0
    Collisions                      = 1367608
    Acceptance rate                 = 0.500841

Cloud name: dsmc
    Number of dsmc particles        = 87951
    Number of molecules             = 3.51804e+22
    Mass in system                  = 0.00163589
    Average linear momentum         = (1.03827e-23 2.72536e-27 -6.84296e-26)
   |Average linear momentum|        = 1.0383e-23
    Average linear kinetic energy   = 1.65937e-20
    Average internal energy         = 9.79813e-21
    Average total energy            = 2.63918e-20

ExecutionTime = 688.19 s  ClockTime = 690 s  Iterations: 335/340  Projected time to finish: 0.171192 min
Time = 0.00355765

deltaT = 1.05882e-05
Mean and max Courant Numbers = 0.199196 0.199196
diagonal:  Solving for rho, Initial residual = 0, Final residual = 0, No Iterations 0
diagonal:  Solving for rhoUx, Initial residual = 0, Final residual = 0, No Iterations 0
diagonal:  Solving for rhoE, Initial residual = 0, Final residual = 0, No Iterations 0
    Collisions                      = 1365746
    Acceptance rate                 = 0.50054

Cloud name: dsmc
    Number of dsmc particles        = 87951
    Number of molecules             = 3.51804e+22
    Mass in system                  = 0.00163589
    Average linear momentum         = (1.0404e-23 2.72536e-27 -6.84296e-26)
   |Average linear momentum|        = 1.04043e-23
    Average linear kinetic energy   = 1.65862e-20
    Average internal energy         = 9.80555e-21
    Average total energy            = 2.63918e-20

ExecutionTime = 689.98 s  ClockTime = 692 s  Iterations: 336/340  Projected time to finish: 0.136901 min
Time = 0.00356824

deltaT = 1.05882e-05
Mean and max Courant Numbers = 0.199196 0.199196
diagonal:  Solving for rho, Initial residual = 0, Final residual = 0, No Iterations 0
diagonal:  Solving for rhoUx, Initial residual = 0, Final residual = 0, No Iterations 0
diagonal:  Solving for rhoE, Initial residual = 0, Final residual = 0, No Iterations 0
    Collisions                      = 1363133
    Acceptance rate                 = 0.499715

Cloud name: dsmc
    Number of dsmc particles        = 87951
    Number of molecules             = 3.51804e+22
    Mass in system                  = 0.00163589
    Average linear momentum         = (1.04365e-23 2.72536e-27 -6.84296e-26)
   |Average linear momentum|        = 1.04367e-23
    Average linear kinetic energy   = 1.66261e-20
    Average internal energy         = 9.76569e-21
    Average total energy            = 2.63918e-20

ExecutionTime = 691.9 s  ClockTime = 694 s  Iterations: 337/340  Projected time to finish: 0.102656 min
Time = 0.00357882

deltaT = 1.05882e-05
Mean and max Courant Numbers = 0.199196 0.199196
diagonal:  Solving for rho, Initial residual = 0, Final residual = 0, No Iterations 0
diagonal:  Solving for rhoUx, Initial residual = 0, Final residual = 0, No Iterations 0
diagonal:  Solving for rhoE, Initial residual = 0, Final residual = 0, No Iterations 0
    Collisions                      = 1363292
    Acceptance rate                 = 0.499918

Cloud name: dsmc
    Number of dsmc particles        = 87951
    Number of molecules             = 3.51804e+22
    Mass in system                  = 0.00163589
    Average linear momentum         = (1.04625e-23 2.72536e-27 -6.84296e-26)
   |Average linear momentum|        = 1.04627e-23
    Average linear kinetic energy   = 1.65992e-20
    Average internal energy         = 9.79261e-21
    Average total energy            = 2.63918e-20

ExecutionTime = 693.68 s  ClockTime = 696 s  Iterations: 338/340  Projected time to finish: 0.0684103 min
Time = 0.00358941

deltaT = 1.05882e-05
Mean and max Courant Numbers = 0.199196 0.199196
diagonal:  Solving for rho, Initial residual = 0, Final residual = 0, No Iterations 0
diagonal:  Solving for rhoUx, Initial residual = 0, Final residual = 0, No Iterations 0
diagonal:  Solving for rhoE, Initial residual = 0, Final residual = 0, No Iterations 0
    Collisions                      = 1361906
    Acceptance rate                 = 0.500002

Cloud name: dsmc
    Number of dsmc particles        = 87951
    Number of molecules             = 3.51804e+22
    Mass in system                  = 0.00163589
    Average linear momentum         = (1.04933e-23 2.72536e-27 -6.84296e-26)
   |Average linear momentum|        = 1.04936e-23
    Average linear kinetic energy   = 1.66034e-20
    Average internal energy         = 9.78837e-21
    Average total energy            = 2.63918e-20

ExecutionTime = 695.48 s  ClockTime = 697 s  Iterations: 339/340  Projected time to finish: 0.0341927 min
Time = 0.0036

deltaT = 1.05882e-05
Mean and max Courant Numbers = 0.199196 0.199196
diagonal:  Solving for rho, Initial residual = 0, Final residual = 0, No Iterations 0
diagonal:  Solving for rhoUx, Initial residual = 0, Final residual = 0, No Iterations 0
diagonal:  Solving for rhoE, Initial residual = 0, Final residual = 0, No Iterations 0
    Collisions                      = 1360840
    Acceptance rate                 = 0.499836

Cloud name: dsmc
    Number of dsmc particles        = 87951
    Number of molecules             = 3.51804e+22
    Mass in system                  = 0.00163589
    Average linear momentum         = (1.0526e-23 2.72536e-27 -6.84296e-26)
   |Average linear momentum|        = 1.05262e-23
    Average linear kinetic energy   = 1.66134e-20
    Average internal energy         = 9.77836e-21
    Average total energy            = 2.63918e-20

ExecutionTime = 698.07 s  ClockTime = 700 s  Iterations: 340/340  Projected time to finish: -1.94513e-15 min
Calculating dsmcFieldsMod.
    Calculating UMean field.
    Calculating translationalT field.
    Calculating internalT field.
    Calculating overallT field.
    Calculating pressure field.
    mag(UMean) max/min : 513.816 10.8862
    translationalT max/min : 1000.08 245.074
    internalT max/min : 1042.47 217.513
    overallT max/min : 959.029 253.22
    p max/min : 133.657 7.61916
dsmcFieldsMod written.

