/*---------------------------------------------------------------------------*\
  =========                 |
  \\      /  F ield         | OpenFOAM: The Open Source CFD Toolbox
   \\    /   O peration     | Website:  https://openfoam.org
    \\  /    A nd           | Version:  7
     \\/     M anipulation  |
\*---------------------------------------------------------------------------*/
Build  : 7-1ff648926f77
Exec   : hybridFoam
Date   : Jan 16 2021
Time   : 23:40:57
Host   : "DESKTOP-KF81SG4"
PID    : 12683
I/O    : uncollated
Case   : /home/anthonygay1812/OpenFOAM/Working/finalShockTube
nProcs : 1
sigFpe : Enabling floating point exception trapping (FOAM_SIGFPE).
fileModificationChecking : Monitoring run-time modified files using timeStampMaster (fileModificationSkew 10)
allowSystemOperations : Allowing user-supplied system call operations

// * * * * * * * * * * * * * * * * * * * * * * * * * * * * * * * * * * * * * //
Create time

Create mesh for time = 0

Create mesh for time = 0

Meshes created
Reading thermophysical properties

Selecting thermodynamics package 
{
    type            hePsiThermo;
    mixture         pureMixture;
    transport       const;
    thermo          hConst;
    equationOfState perfectGas;
    specie          specie;
    energy          sensibleInternalEnergy;
}

Using dynamicCode for patch fluidBound on field p at line 19 in "/home/anthonygay1812/OpenFOAM/Working/finalShockTube/system/fluid/codeDict.HPCFluidP"
Creating new library in "dynamicCode/HPCFluidP/platforms/linux64GccDPInt32Opt/lib/libHPCFluidP_6969a89e0808646afd15b8853ea8aecfafc304a9.so"
Invoking "wmake -s libso /home/anthonygay1812/OpenFOAM/Working/finalShockTube/dynamicCode/HPCFluidP"
wmake libso /home/anthonygay1812/OpenFOAM/Working/finalShockTube/dynamicCode/HPCFluidP
    ln: ./lnInclude
    wmkdep: fixedValueFvPatchFieldTemplate.C
    Ctoo: fixedValueFvPatchFieldTemplate.C
    ld: /home/anthonygay1812/OpenFOAM/Working/finalShockTube/dynamicCode/HPCFluidP/../platforms/linux64GccDPInt32Opt/lib/libHPCFluidP_6969a89e0808646afd15b8853ea8aecfafc304a9.so
Using dynamicCode for patch fluidBound on field T at line 110 in "/home/anthonygay1812/OpenFOAM/Working/finalShockTube/system/fluid/codeDict.HPCFluidT"
Creating new library in "dynamicCode/HPCFluidT/platforms/linux64GccDPInt32Opt/lib/libHPCFluidT_cc4ad10e703487ae4926d84ad7cc6aa2918e8cfe.so"
Invoking "wmake -s libso /home/anthonygay1812/OpenFOAM/Working/finalShockTube/dynamicCode/HPCFluidT"
wmake libso /home/anthonygay1812/OpenFOAM/Working/finalShockTube/dynamicCode/HPCFluidT
    ln: ./lnInclude
    wmkdep: fixedValueFvPatchFieldTemplate.C
    Ctoo: fixedValueFvPatchFieldTemplate.C
    ld: /home/anthonygay1812/OpenFOAM/Working/finalShockTube/dynamicCode/HPCFluidT/../platforms/linux64GccDPInt32Opt/lib/libHPCFluidT_cc4ad10e703487ae4926d84ad7cc6aa2918e8cfe.so
Reading field U

Using dynamicCode for patch fluidBound on field U at line 183 in "/home/anthonygay1812/OpenFOAM/Working/finalShockTube/system/fluid/codeDict.HPCFluidU"
Creating new library in "dynamicCode/HPCFluidU/platforms/linux64GccDPInt32Opt/lib/libHPCFluidU_703974d06aec963ff4176132dc0ce075ca2d440e.so"
Invoking "wmake -s libso /home/anthonygay1812/OpenFOAM/Working/finalShockTube/dynamicCode/HPCFluidU"
wmake libso /home/anthonygay1812/OpenFOAM/Working/finalShockTube/dynamicCode/HPCFluidU
    ln: ./lnInclude
    wmkdep: fixedValueFvPatchFieldTemplate.C
    Ctoo: fixedValueFvPatchFieldTemplate.C
    ld: /home/anthonygay1812/OpenFOAM/Working/finalShockTube/dynamicCode/HPCFluidU/../platforms/linux64GccDPInt32Opt/lib/libHPCFluidU_703974d06aec963ff4176132dc0ce075ca2d440e.so
Creating turbulence model

Selecting turbulence model type laminar
Selecting laminar stress model Stokes
fluxScheme: Kurganov
Initialising dsmc for Time = 0


Constructing constant properties for
    N2

Initialising particles

MFP: 8.51214e-05
Knudsen:0.0851214
Fluid regime for cells 0 to 300

MFP: 0.000680952
Knudsen:0.680952
Transitional regime for cells 300 to 800

Total number of molecules added: 389764


ClockTime = 37 s


Constructing dsmcCloud 
Using dynamicCode for patch partBound on field boundaryT at line 19 in "/home/anthonygay1812/OpenFOAM/Working/finalShockTube/system/particle/codeDict.HPCParticleT"
Creating new library in "dynamicCode/HPCParticleT/platforms/linux64GccDPInt32Opt/lib/libHPCParticleT_dc7a18ddce2418b0425a037ff6effb5f05c5ecb6.so"
Invoking "wmake -s libso /home/anthonygay1812/OpenFOAM/Working/finalShockTube/dynamicCode/HPCParticleT"
wmake libso /home/anthonygay1812/OpenFOAM/Working/finalShockTube/dynamicCode/HPCParticleT
    ln: ./lnInclude
    wmkdep: fixedValueFvPatchFieldTemplate.C
    Ctoo: fixedValueFvPatchFieldTemplate.C
    ld: /home/anthonygay1812/OpenFOAM/Working/finalShockTube/dynamicCode/HPCParticleT/../platforms/linux64GccDPInt32Opt/lib/libHPCParticleT_dc7a18ddce2418b0425a037ff6effb5f05c5ecb6.so
Using dynamicCode for patch partBound on field boundaryU at line 33 in "/home/anthonygay1812/OpenFOAM/Working/finalShockTube/system/particle/codeDict.HPCParticleU"
Creating new library in "dynamicCode/HPCParticleU/platforms/linux64GccDPInt32Opt/lib/libHPCParticleU_91cdc58e2f6455ff40a78dfb25acd5bf700bc321.so"
Invoking "wmake -s libso /home/anthonygay1812/OpenFOAM/Working/finalShockTube/dynamicCode/HPCParticleU"
wmake libso /home/anthonygay1812/OpenFOAM/Working/finalShockTube/dynamicCode/HPCParticleU
    ln: ./lnInclude
    wmkdep: fixedValueFvPatchFieldTemplate.C
    Ctoo: fixedValueFvPatchFieldTemplate.C
    ld: /home/anthonygay1812/OpenFOAM/Working/finalShockTube/dynamicCode/HPCParticleU/../platforms/linux64GccDPInt32Opt/lib/libHPCParticleU_91cdc58e2f6455ff40a78dfb25acd5bf700bc321.so
Selecting BinaryCollisionModel LarsenBorgnakkeVariableHardSphere
Selecting WallInteractionModel MaxwellianThermal
Selecting InflowBoundaryModel oneDirectionalHybridDSMC

Constructing constant properties for
    N2
Time = 0.000625


SOLVING PARTICLE DOMAIN

PARTICLE INFLOW BC 

Virtual number density of inserted particles: 1(1.06552e+06)
Particle Boundary Temp: 0.0034
Particle Boundary Velocity: (0 0 0)
--> FOAM Warning : 
    From function void Foam::particle::locate(const vector&, Foam::label, bool, Foam::string)
    in file particle/particle.C at line 495
    Particle initialised with a location outside of the mesh.
--> FOAM Warning : 
    From function void Foam::particle::locate(const vector&, Foam::label, bool, Foam::string)
    in file particle/particle.C at line 495
    Particle initialised with a location outside of the mesh.
--> FOAM Warning : 
    From function void Foam::particle::locate(const vector&, Foam::label, bool, Foam::string)
    in file particle/particle.C at line 495
    Particle initialised with a location outside of the mesh.
--> FOAM Warning : 
    From function void Foam::particle::locate(const vector&, Foam::label, bool, Foam::string)
    in file particle/particle.C at line 495
    Particle initialised with a location outside of the mesh.
--> FOAM Warning : 
    From function void Foam::particle::locate(const vector&, Foam::label, bool, Foam::string)
    in file particle/particle.C at line 495
    Particle initialised with a location outside of the mesh.
--> FOAM Warning : 
    From function void Foam::particle::locate(const vector&, Foam::label, bool, Foam::string)
    in file particle/particle.C at line 495
    Particle initialised with a location outside of the mesh.
--> FOAM Warning : 
    From function void Foam::particle::locate(const vector&, Foam::label, bool, Foam::string)
    in file particle/particle.C at line 495
    Particle initialised with a location outside of the mesh.
--> FOAM Warning : 
    From function void Foam::particle::locate(const vector&, Foam::label, bool, Foam::string)
    in file particle/particle.C at line 495
    Particle initialised with a location outside of the mesh.
--> FOAM Warning : 
    From function void Foam::particle::locate(const vector&, Foam::label, bool, Foam::string)
    in file particle/particle.C at line 495
    Particle initialised with a location outside of the mesh.
--> FOAM Warning : 
    From function void Foam::particle::locate(const vector&, Foam::label, bool, Foam::string)
    in file particle/particle.C at line 495
    Particle initialised with a location outside of the mesh.
--> FOAM Warning : 
    From function void Foam::particle::locate(const vector&, Foam::label, bool, Foam::string)
    in file particle/particle.C at line 495
    Particle initialised with a location outside of the mesh.
    Particles inserted              = 267
    Collisions                      = 1719258
    Acceptance rate                 = 1

Cloud name: dsmc
    Number of dsmc particles        = 389787
    Number of molecules             = 7.79574e+21
    Mass in system                  = 0.000362502
    Average linear momentum         = (1.03811e-28 7.88713e-30 4.08745e-29)
   |Average linear momentum|        = 1.11846e-28
    Average linear kinetic energy   = 7.13093e-26
    Average internal energy         = 4.19386e-26
    Average total energy            = 1.13248e-25

SOLVING FLUID DOMAIN
deltaT = 0.000738636
Mean and max Courant Numbers = 0.43099 0.43099
diagonal:  Solving for rho, Initial residual = 0, Final residual = 0, No Iterations 0
diagonal:  Solving for rhoUx, Initial residual = 0, Final residual = 0, No Iterations 0
diagonal:  Solving for rhoE, Initial residual = 0, Final residual = 0, No Iterations 0

FLUID PRESSURE BC
Particle pressure: 0.00102794
Fluid pressure: 0.001

FLUID PRESSURE BC
Particle pressure: 0.00102794
Fluid pressure: 0.001

ExecutionTime = 7.84 s  ClockTime = 61 s  Iterations: 0.846154/338.462  Projected time to finish: 52.136 min
Time = 0.00136364


SOLVING PARTICLE DOMAIN

PARTICLE INFLOW BC 

Virtual number density of inserted particles: 1(1.05771e+06)
Particle Boundary Temp: 0.00344425
Particle Boundary Velocity: (-0.021751 -0.00442693 -0.0070574)
--> FOAM Warning : 
    From function void Foam::particle::locate(const vector&, Foam::label, bool, Foam::string)
    in file particle/particle.C at line 495
    Particle initialised with a location outside of the mesh.
--> FOAM Warning : 
    From function void Foam::particle::locate(const vector&, Foam::label, bool, Foam::string)
    in file particle/particle.C at line 495
    Particle initialised with a location outside of the mesh.
--> FOAM Warning : 
    From function void Foam::particle::locate(const vector&, Foam::label, bool, Foam::string)
    in file particle/particle.C at line 495
    Particle initialised with a location outside of the mesh.
--> FOAM Warning : 
    From function void Foam::particle::locate(const vector&, Foam::label, bool, Foam::string)
    in file particle/particle.C at line 495
    Particle initialised with a location outside of the mesh.
--> FOAM Warning : 
    From function void Foam::particle::locate(const vector&, Foam::label, bool, Foam::string)
    in file particle/particle.C at line 495
    Particle initialised with a location outside of the mesh.
--> FOAM Warning : 
    From function void Foam::particle::locate(const vector&, Foam::label, bool, Foam::string)
    in file particle/particle.C at line 495
    Particle initialised with a location outside of the mesh.
--> FOAM Warning : 
    From function void Foam::particle::locate(const vector&, Foam::label, bool, Foam::string)
    in file particle/particle.C at line 495
    Particle initialised with a location outside of the mesh.
--> FOAM Warning : 
    From function void Foam::particle::locate(const vector&, Foam::label, bool, Foam::string)
    in file particle/particle.C at line 495
    Particle initialised with a location outside of the mesh.
--> FOAM Warning : 
    From function void Foam::particle::locate(const vector&, Foam::label, bool, Foam::string)
    in file particle/particle.C at line 495
    Particle initialised with a location outside of the mesh.
--> FOAM Warning : 
    From function void Foam::particle::locate(const vector&, Foam::label, bool, Foam::string)
    in file particle/particle.C at line 495
    Particle initialised with a location outside of the mesh.
--> FOAM Warning : 
    From function void Foam::particle::locate(const vector&, Foam::label, bool, Foam::string)
    in file particle/particle.C at line 495
    Particle initialised with a location outside of the mesh.
--> FOAM Warning : 
    From function void Foam::particle::locate(const vector&, Foam::label, bool, Foam::string)
    in file particle/particle.C at line 495
    Particle initialised with a location outside of the mesh.
--> FOAM Warning : 
    From function void Foam::particle::locate(const vector&, Foam::label, bool, Foam::string)
    in file particle/particle.C at line 495
    Particle initialised with a location outside of the mesh.
    Particles inserted              = 307
    Collisions                      = 48763543
    Acceptance rate                 = 0.562096

Cloud name: dsmc
    Number of dsmc particles        = 389751
    Number of molecules             = 7.79502e+21
    Mass in system                  = 0.000362468
    Average linear momentum         = (1.95393e-28 9.4985e-30 4.26664e-29)
   |Average linear momentum|        = 2.00223e-28
    Average linear kinetic energy   = 6.80517e-26
    Average internal energy         = 4.51793e-26
    Average total energy            = 1.13231e-25

SOLVING FLUID DOMAIN
deltaT = 0.000342556
Mean and max Courant Numbers = 0.199892 0.202404
diagonal:  Solving for rho, Initial residual = 0, Final residual = 0, No Iterations 0
diagonal:  Solving for rhoUx, Initial residual = 0, Final residual = 0, No Iterations 0
diagonal:  Solving for rhoE, Initial residual = 0, Final residual = 0, No Iterations 0

FLUID PRESSURE BC
Particle pressure: 0.000816035
Fluid pressure: 0.00101019

ExecutionTime = 123.89 s  ClockTime = 177 s  Iterations: 3.98077/729.808  Projected time to finish: 376.488 min
Time = 0.00170619


SOLVING PARTICLE DOMAIN

PARTICLE INFLOW BC 

Virtual number density of inserted particles: 1(1.03391e+06)
Particle Boundary Temp: 0.00339392
Particle Boundary Velocity: (-0.0611349 -0.0144348 -0.00181727)
--> FOAM Warning : 
    From function void Foam::particle::locate(const vector&, Foam::label, bool, Foam::string)
    in file particle/particle.C at line 495
    Particle initialised with a location outside of the mesh.
--> FOAM Warning : 
    From function void Foam::particle::locate(const vector&, Foam::label, bool, Foam::string)
    in file particle/particle.C at line 495
    Particle initialised with a location outside of the mesh.
--> FOAM Warning : 
    From function void Foam::particle::locate(const vector&, Foam::label, bool, Foam::string)
    in file particle/particle.C at line 495
    Particle initialised with a location outside of the mesh.
--> FOAM Warning : 
    From function void Foam::particle::locate(const vector&, Foam::label, bool, Foam::string)
    in file particle/particle.C at line 495
    Particle initialised with a location outside of the mesh.
--> FOAM Warning : 
    From function void Foam::particle::locate(const vector&, Foam::label, bool, Foam::string)
    in file particle/particle.C at line 495
    Particle initialised with a location outside of the mesh.
--> FOAM Warning : 
    From function void Foam::particle::locate(const vector&, Foam::label, bool, Foam::string)
    in file particle/particle.C at line 495
    Particle initialised with a location outside of the mesh.
--> FOAM Warning : 
    From function void Foam::particle::locate(const vector&, Foam::label, bool, Foam::string)
    in file particle/particle.C at line 495
    Particle initialised with a location outside of the mesh.
    Particles inserted              = 131
    Collisions                      = 22594636
    Acceptance rate                 = 0.518096

Cloud name: dsmc
    Number of dsmc particles        = 389724
    Number of molecules             = 7.79448e+21
    Mass in system                  = 0.000362443
    Average linear momentum         = (2.37793e-28 8.04786e-30 4.29724e-29)
   |Average linear momentum|        = 2.41779e-28
    Average linear kinetic energy   = 6.80427e-26
    Average internal energy         = 4.51903e-26
    Average total energy            = 1.13233e-25

SOLVING FLUID DOMAIN
deltaT = 0.000337591
Mean and max Courant Numbers = 0.197011 0.202393
diagonal:  Solving for rho, Initial residual = 0, Final residual = 0, No Iterations 0
diagonal:  Solving for rhoUx, Initial residual = 0, Final residual = 0, No Iterations 0
diagonal:  Solving for rhoE, Initial residual = 0, Final residual = 0, No Iterations 0

FLUID PRESSURE BC
Particle pressure: 0.000807638
Fluid pressure: 0.00103554

ExecutionTime = 184.61 s  ClockTime = 238 s  Iterations: 5.05402/740.54  Projected time to finish: 447.756 min
Time = 0.00204378


SOLVING PARTICLE DOMAIN

PARTICLE INFLOW BC 

Virtual number density of inserted particles: 1(1.02247e+06)
Particle Boundary Temp: 0.00336529
Particle Boundary Velocity: (-0.0739453 -0.0244182 0.00101622)
--> FOAM Warning : 
    From function void Foam::particle::locate(const vector&, Foam::label, bool, Foam::string)
    in file particle/particle.C at line 495
    Particle initialised with a location outside of the mesh.
--> FOAM Warning : 
    From function void Foam::particle::locate(const vector&, Foam::label, bool, Foam::string)
    in file particle/particle.C at line 495
    Particle initialised with a location outside of the mesh.
--> FOAM Warning : 
    From function void Foam::particle::locate(const vector&, Foam::label, bool, Foam::string)
    in file particle/particle.C at line 495
    Particle initialised with a location outside of the mesh.
--> FOAM Warning : 
    From function void Foam::particle::locate(const vector&, Foam::label, bool, Foam::string)
    in file particle/particle.C at line 495
    Particle initialised with a location outside of the mesh.
--> FOAM Warning : 
    From function void Foam::particle::locate(const vector&, Foam::label, bool, Foam::string)
    in file particle/particle.C at line 495
    Particle initialised with a location outside of the mesh.
--> FOAM Warning : 
    From function void Foam::particle::locate(const vector&, Foam::label, bool, Foam::string)
    in file particle/particle.C at line 495
    Particle initialised with a location outside of the mesh.
--> FOAM Warning : 
    From function void Foam::particle::locate(const vector&, Foam::label, bool, Foam::string)
    in file particle/particle.C at line 495
    Particle initialised with a location outside of the mesh.
--> FOAM Warning : 
    From function void Foam::particle::locate(const vector&, Foam::label, bool, Foam::string)
    in file particle/particle.C at line 495
    Particle initialised with a location outside of the mesh.
    Particles inserted              = 125
    Collisions                      = 22258328
    Acceptance rate                 = 0.514608

Cloud name: dsmc
    Number of dsmc particles        = 389693
    Number of molecules             = 7.79386e+21
    Mass in system                  = 0.000362414
    Average linear momentum         = (2.74767e-28 1.66283e-29 4.39014e-29)
   |Average linear momentum|        = 2.78749e-28
    Average linear kinetic energy   = 6.80204e-26
    Average internal energy         = 4.52066e-26
    Average total energy            = 1.13227e-25

SOLVING FLUID DOMAIN
deltaT = 0.000332699
Mean and max Courant Numbers = 0.194164 0.200382
diagonal:  Solving for rho, Initial residual = 0, Final residual = 0, No Iterations 0
diagonal:  Solving for rhoUx, Initial residual = 0, Final residual = 0, No Iterations 0
diagonal:  Solving for rhoE, Initial residual = 0, Final residual = 0, No Iterations 0

FLUID PRESSURE BC
Particle pressure: 0.000776789
Fluid pressure: 0.0010627

ExecutionTime = 253.08 s  ClockTime = 305 s  Iterations: 6.14305/751.43  Projected time to finish: 511.737 min
Time = 0.00237648


SOLVING PARTICLE DOMAIN

PARTICLE INFLOW BC 

Virtual number density of inserted particles: 1(1.01443e+06)
Particle Boundary Temp: 0.00334904
Particle Boundary Velocity: (-0.0760069 -0.00937007 0.00152642)
--> FOAM Warning : 
    From function void Foam::particle::locate(const vector&, Foam::label, bool, Foam::string)
    in file particle/particle.C at line 495
    Particle initialised with a location outside of the mesh.
--> FOAM Warning : 
    From function void Foam::particle::locate(const vector&, Foam::label, bool, Foam::string)
    in file particle/particle.C at line 495
    Particle initialised with a location outside of the mesh.
--> FOAM Warning : 
    From function void Foam::particle::locate(const vector&, Foam::label, bool, Foam::string)
    in file particle/particle.C at line 495
    Particle initialised with a location outside of the mesh.
--> FOAM Warning : 
    From function void Foam::particle::locate(const vector&, Foam::label, bool, Foam::string)
    in file particle/particle.C at line 495
    Particle initialised with a location outside of the mesh.
--> FOAM Warning : 
    From function void Foam::particle::locate(const vector&, Foam::label, bool, Foam::string)
    in file particle/particle.C at line 495
    Particle initialised with a location outside of the mesh.
--> FOAM Warning : 
    From function void Foam::particle::locate(const vector&, Foam::label, bool, Foam::string)
    in file particle/particle.C at line 495
    Particle initialised with a location outside of the mesh.
--> FOAM Warning : 
    From function void Foam::particle::locate(const vector&, Foam::label, bool, Foam::string)
    in file particle/particle.C at line 495
    Particle initialised with a location outside of the mesh.
--> FOAM Warning : 
    From function void Foam::particle::locate(const vector&, Foam::label, bool, Foam::string)
    in file particle/particle.C at line 495
    Particle initialised with a location outside of the mesh.
--> FOAM Warning : 
    From function void Foam::particle::locate(const vector&, Foam::label, bool, Foam::string)
    in file particle/particle.C at line 495
    Particle initialised with a location outside of the mesh.
--> FOAM Warning : 
    From function void Foam::particle::locate(const vector&, Foam::label, bool, Foam::string)
    in file particle/particle.C at line 495
    Particle initialised with a location outside of the mesh.
    Particles inserted              = 122
    Collisions                      = 21923775
    Acceptance rate                 = 0.511966

Cloud name: dsmc
    Number of dsmc particles        = 389674
    Number of molecules             = 7.79348e+21
    Mass in system                  = 0.000362397
    Average linear momentum         = (3.07923e-28 1.34189e-29 4.31791e-29)
   |Average linear momentum|        = 3.11225e-28
    Average linear kinetic energy   = 6.80575e-26
    Average internal energy         = 4.51717e-26
    Average total energy            = 1.13229e-25

SOLVING FLUID DOMAIN
deltaT = 0.000327877
Mean and max Courant Numbers = 0.191362 0.198164
diagonal:  Solving for rho, Initial residual = 0, Final residual = 0, No Iterations 0
diagonal:  Solving for rhoUx, Initial residual = 0, Final residual = 0, No Iterations 0
diagonal:  Solving for rhoE, Initial residual = 0, Final residual = 0, No Iterations 0

FLUID PRESSURE BC
Particle pressure: 0.000795211
Fluid pressure: 0.00108884

ExecutionTime = 315.39 s  ClockTime = 368 s  Iterations: 7.24809/762.481  Projected time to finish: 547.714 min
Time = 0.00270436


SOLVING PARTICLE DOMAIN

PARTICLE INFLOW BC 

Virtual number density of inserted particles: 1(1.01756e+06)
Particle Boundary Temp: 0.00334478
Particle Boundary Velocity: (-0.0680719 -0.00872818 -0.00430552)
--> FOAM Warning : 
    From function void Foam::particle::locate(const vector&, Foam::label, bool, Foam::string)
    in file particle/particle.C at line 495
    Particle initialised with a location outside of the mesh.
--> FOAM Warning : 
    From function void Foam::particle::locate(const vector&, Foam::label, bool, Foam::string)
    in file particle/particle.C at line 495
    Particle initialised with a location outside of the mesh.
--> FOAM Warning : 
    From function void Foam::particle::locate(const vector&, Foam::label, bool, Foam::string)
    in file particle/particle.C at line 495
    Particle initialised with a location outside of the mesh.
--> FOAM Warning : 
    From function void Foam::particle::locate(const vector&, Foam::label, bool, Foam::string)
    in file particle/particle.C at line 495
    Particle initialised with a location outside of the mesh.
--> FOAM Warning : 
    From function void Foam::particle::locate(const vector&, Foam::label, bool, Foam::string)
    in file particle/particle.C at line 495
    Particle initialised with a location outside of the mesh.
    Particles inserted              = 122
    Collisions                      = 21593440
    Acceptance rate                 = 0.510214

Cloud name: dsmc
    Number of dsmc particles        = 389652
    Number of molecules             = 7.79304e+21
    Mass in system                  = 0.000362376
    Average linear momentum         = (3.4419e-28 1.2227e-29 3.96449e-29)
   |Average linear momentum|        = 3.46681e-28
    Average linear kinetic energy   = 6.79851e-26
    Average internal energy         = 4.52395e-26
    Average total energy            = 1.13225e-25

SOLVING FLUID DOMAIN
deltaT = 0.000327877
Mean and max Courant Numbers = 0.191372 0.19826
diagonal:  Solving for rho, Initial residual = 0, Final residual = 0, No Iterations 0
diagonal:  Solving for rhoUx, Initial residual = 0, Final residual = 0, No Iterations 0
diagonal:  Solving for rhoE, Initial residual = 0, Final residual = 0, No Iterations 0

FLUID PRESSURE BC
Particle pressure: 0.000829758
Fluid pressure: 0.00111122

ExecutionTime = 376.8 s  ClockTime = 429 s  Iterations: 8.24809/762.481  Projected time to finish: 574.264 min
Time = 0.00303224


SOLVING PARTICLE DOMAIN

PARTICLE INFLOW BC 

Virtual number density of inserted particles: 1(1.02386e+06)
Particle Boundary Temp: 0.0033681
Particle Boundary Velocity: (-0.0578816 -0.00925305 -0.0115361)
--> FOAM Warning : 
    From function void Foam::particle::locate(const vector&, Foam::label, bool, Foam::string)
    in file particle/particle.C at line 495
    Particle initialised with a location outside of the mesh.
--> FOAM Warning : 
    From function void Foam::particle::locate(const vector&, Foam::label, bool, Foam::string)
    in file particle/particle.C at line 495
    Particle initialised with a location outside of the mesh.
    Particles inserted              = 124
    Collisions                      = 21580872
    Acceptance rate                 = 0.508666

Cloud name: dsmc
    Number of dsmc particles        = 389647
    Number of molecules             = 7.79294e+21
    Mass in system                  = 0.000362372
    Average linear momentum         = (3.78612e-28 1.26423e-29 4.02955e-29)
   |Average linear momentum|        = 3.8096e-28
    Average linear kinetic energy   = 6.78302e-26
    Average internal energy         = 4.53878e-26
    Average total energy            = 1.13218e-25

SOLVING FLUID DOMAIN
deltaT = 0.000327877
Mean and max Courant Numbers = 0.19138 0.198569
diagonal:  Solving for rho, Initial residual = 0, Final residual = 0, No Iterations 0
diagonal:  Solving for rhoUx, Initial residual = 0, Final residual = 0, No Iterations 0
diagonal:  Solving for rhoE, Initial residual = 0, Final residual = 0, No Iterations 0

FLUID PRESSURE BC
Particle pressure: 0.000834832
Fluid pressure: 0.00112986

ExecutionTime = 438.42 s  ClockTime = 491 s  Iterations: 9.24809/762.481  Projected time to finish: 595.136 min
Time = 0.00336011


SOLVING PARTICLE DOMAIN

PARTICLE INFLOW BC 

Virtual number density of inserted particles: 1(1.03774e+06)
Particle Boundary Temp: 0.00336558
Particle Boundary Velocity: (-0.0482981 -0.0102476 -0.0207535)
--> FOAM Warning : 
    From function void Foam::particle::locate(const vector&, Foam::label, bool, Foam::string)
    in file particle/particle.C at line 495
    Particle initialised with a location outside of the mesh.
--> FOAM Warning : 
    From function void Foam::particle::locate(const vector&, Foam::label, bool, Foam::string)
    in file particle/particle.C at line 495
    Particle initialised with a location outside of the mesh.
--> FOAM Warning : 
    From function void Foam::particle::locate(const vector&, Foam::label, bool, Foam::string)
    in file particle/particle.C at line 495
    Particle initialised with a location outside of the mesh.
--> FOAM Warning : 
    From function void Foam::particle::locate(const vector&, Foam::label, bool, Foam::string)
    in file particle/particle.C at line 495
    Particle initialised with a location outside of the mesh.
--> FOAM Warning : 
    From function void Foam::particle::locate(const vector&, Foam::label, bool, Foam::string)
    in file particle/particle.C at line 495
    Particle initialised with a location outside of the mesh.
--> FOAM Warning : 
    From function void Foam::particle::locate(const vector&, Foam::label, bool, Foam::string)
    in file particle/particle.C at line 495
    Particle initialised with a location outside of the mesh.
--> FOAM Warning : 
    From function void Foam::particle::locate(const vector&, Foam::label, bool, Foam::string)
    in file particle/particle.C at line 495
    Particle initialised with a location outside of the mesh.
--> FOAM Warning : 
    From function void Foam::particle::locate(const vector&, Foam::label, bool, Foam::string)
    in file particle/particle.C at line 495
    Particle initialised with a location outside of the mesh.
--> FOAM Warning : 
    From function void Foam::particle::locate(const vector&, Foam::label, bool, Foam::string)
    in file particle/particle.C at line 495
    Particle initialised with a location outside of the mesh.
    Particles inserted              = 127
    Collisions                      = 21570012
    Acceptance rate                 = 0.50771

Cloud name: dsmc
    Number of dsmc particles        = 389631
    Number of molecules             = 7.79262e+21
    Mass in system                  = 0.000362357
    Average linear momentum         = (4.15651e-28 1.27894e-29 4.20646e-29)
   |Average linear momentum|        = 4.1797e-28
    Average linear kinetic energy   = 6.79147e-26
    Average internal energy         = 4.53009e-26
    Average total energy            = 1.13216e-25

SOLVING FLUID DOMAIN
deltaT = 0.000327877
Mean and max Courant Numbers = 0.191386 0.198398
diagonal:  Solving for rho, Initial residual = 0, Final residual = 0, No Iterations 0
diagonal:  Solving for rhoUx, Initial residual = 0, Final residual = 0, No Iterations 0
diagonal:  Solving for rhoE, Initial residual = 0, Final residual = 0, No Iterations 0

FLUID PRESSURE BC
Particle pressure: 0.000875679
Fluid pressure: 0.00114458

ExecutionTime = 500.69 s  ClockTime = 553 s  Iterations: 10.2481/762.481  Projected time to finish: 612.529 min
Time = 0.00368799


SOLVING PARTICLE DOMAIN

PARTICLE INFLOW BC 

Virtual number density of inserted particles: 1(1.05307e+06)
Particle Boundary Temp: 0.00337999
Particle Boundary Velocity: (-0.0299957 -0.00747182 -0.0191457)
--> FOAM Warning : 
    From function void Foam::particle::locate(const vector&, Foam::label, bool, Foam::string)
    in file particle/particle.C at line 495
    Particle initialised with a location outside of the mesh.
--> FOAM Warning : 
    From function void Foam::particle::locate(const vector&, Foam::label, bool, Foam::string)
    in file particle/particle.C at line 495
    Particle initialised with a location outside of the mesh.
--> FOAM Warning : 
    From function void Foam::particle::locate(const vector&, Foam::label, bool, Foam::string)
    in file particle/particle.C at line 495
    Particle initialised with a location outside of the mesh.
--> FOAM Warning : 
    From function void Foam::particle::locate(const vector&, Foam::label, bool, Foam::string)
    in file particle/particle.C at line 495
    Particle initialised with a location outside of the mesh.
--> FOAM Warning : 
    From function void Foam::particle::locate(const vector&, Foam::label, bool, Foam::string)
    in file particle/particle.C at line 495
    Particle initialised with a location outside of the mesh.
--> FOAM Warning : 
    From function void Foam::particle::locate(const vector&, Foam::label, bool, Foam::string)
    in file particle/particle.C at line 495
    Particle initialised with a location outside of the mesh.
--> FOAM Warning : 
    From function void Foam::particle::locate(const vector&, Foam::label, bool, Foam::string)
    in file particle/particle.C at line 495
    Particle initialised with a location outside of the mesh.
--> FOAM Warning : 
    From function void Foam::particle::locate(const vector&, Foam::label, bool, Foam::string)
    in file particle/particle.C at line 495
    Particle initialised with a location outside of the mesh.
--> FOAM Warning : 
    From function void Foam::particle::locate(const vector&, Foam::label, bool, Foam::string)
    in file particle/particle.C at line 495
    Particle initialised with a location outside of the mesh.
    Particles inserted              = 134
    Collisions                      = 21560068
    Acceptance rate                 = 0.506881

Cloud name: dsmc
    Number of dsmc particles        = 389631
    Number of molecules             = 7.79262e+21
    Mass in system                  = 0.000362357
    Average linear momentum         = (4.52624e-28 1.23254e-29 4.54769e-29)
   |Average linear momentum|        = 4.55069e-28
    Average linear kinetic energy   = 6.80488e-26
    Average internal energy         = 4.51721e-26
    Average total energy            = 1.13221e-25

SOLVING FLUID DOMAIN
deltaT = 0.000327877
Mean and max Courant Numbers = 0.191389 0.197653
diagonal:  Solving for rho, Initial residual = 0, Final residual = 0, No Iterations 0
diagonal:  Solving for rhoUx, Initial residual = 0, Final residual = 0, No Iterations 0
diagonal:  Solving for rhoE, Initial residual = 0, Final residual = 0, No Iterations 0

FLUID PRESSURE BC
Particle pressure: 0.000906061
Fluid pressure: 0.00115195

ExecutionTime = 563.75 s  ClockTime = 616 s  Iterations: 11.2481/762.481  Projected time to finish: 627.525 min
Time = 0.00401587


SOLVING PARTICLE DOMAIN

PARTICLE INFLOW BC 

Virtual number density of inserted particles: 1(1.07123e+06)
Particle Boundary Temp: 0.00338561
Particle Boundary Velocity: (-0.0230989 -0.00952197 -0.0149108)
--> FOAM Warning : 
    From function void Foam::particle::locate(const vector&, Foam::label, bool, Foam::string)
    in file particle/particle.C at line 495
    Particle initialised with a location outside of the mesh.
--> FOAM Warning : 
    From function void Foam::particle::locate(const vector&, Foam::label, bool, Foam::string)
    in file particle/particle.C at line 495
    Particle initialised with a location outside of the mesh.
--> FOAM Warning : 
    From function void Foam::particle::locate(const vector&, Foam::label, bool, Foam::string)
    in file particle/particle.C at line 495
    Particle initialised with a location outside of the mesh.
--> FOAM Warning : 
    From function void Foam::particle::locate(const vector&, Foam::label, bool, Foam::string)
    in file particle/particle.C at line 495
    Particle initialised with a location outside of the mesh.
    Particles inserted              = 136
    Collisions                      = 21543908
    Acceptance rate                 = 0.505846

Cloud name: dsmc
    Number of dsmc particles        = 389627
    Number of molecules             = 7.79254e+21
    Mass in system                  = 0.000362353
    Average linear momentum         = (4.91294e-28 9.96777e-30 4.58582e-29)
   |Average linear momentum|        = 4.93531e-28
    Average linear kinetic energy   = 6.79456e-26
    Average internal energy         = 4.52722e-26
    Average total energy            = 1.13218e-25

SOLVING FLUID DOMAIN
deltaT = 0.000327877
Mean and max Courant Numbers = 0.191393 0.197531
diagonal:  Solving for rho, Initial residual = 0, Final residual = 0, No Iterations 0
diagonal:  Solving for rhoUx, Initial residual = 0, Final residual = 0, No Iterations 0
diagonal:  Solving for rhoE, Initial residual = 0, Final residual = 0, No Iterations 0

FLUID PRESSURE BC
Particle pressure: 0.00092846
Fluid pressure: 0.0011574

ExecutionTime = 627.08 s  ClockTime = 680 s  Iterations: 12.2481/762.481  Projected time to finish: 640.176 min
Time = 0.00434374


SOLVING PARTICLE DOMAIN

PARTICLE INFLOW BC 

Virtual number density of inserted particles: 1(1.08836e+06)
Particle Boundary Temp: 0.00338801
Particle Boundary Velocity: (-0.0131881 -0.0122284 -0.0131742)
--> FOAM Warning : 
    From function void Foam::particle::locate(const vector&, Foam::label, bool, Foam::string)
    in file particle/particle.C at line 495
    Particle initialised with a location outside of the mesh.
--> FOAM Warning : 
    From function void Foam::particle::locate(const vector&, Foam::label, bool, Foam::string)
    in file particle/particle.C at line 495
    Particle initialised with a location outside of the mesh.
--> FOAM Warning : 
    From function void Foam::particle::locate(const vector&, Foam::label, bool, Foam::string)
    in file particle/particle.C at line 495
    Particle initialised with a location outside of the mesh.
--> FOAM Warning : 
    From function void Foam::particle::locate(const vector&, Foam::label, bool, Foam::string)
    in file particle/particle.C at line 495
    Particle initialised with a location outside of the mesh.
--> FOAM Warning : 
    From function void Foam::particle::locate(const vector&, Foam::label, bool, Foam::string)
    in file particle/particle.C at line 495
    Particle initialised with a location outside of the mesh.
    Particles inserted              = 140
    Collisions                      = 21542667
    Acceptance rate                 = 0.505044

Cloud name: dsmc
    Number of dsmc particles        = 389644
    Number of molecules             = 7.79288e+21
    Mass in system                  = 0.000362369
    Average linear momentum         = (5.25953e-28 8.48346e-30 4.87259e-29)
   |Average linear momentum|        = 5.28274e-28
    Average linear kinetic energy   = 6.79796e-26
    Average internal energy         = 4.52366e-26
    Average total energy            = 1.13216e-25

SOLVING FLUID DOMAIN
deltaT = 0.000327877
Mean and max Courant Numbers = 0.191395 0.197005
diagonal:  Solving for rho, Initial residual = 0, Final residual = 0, No Iterations 0
diagonal:  Solving for rhoUx, Initial residual = 0, Final residual = 0, No Iterations 0
diagonal:  Solving for rhoE, Initial residual = 0, Final residual = 0, No Iterations 0

FLUID PRESSURE BC
Particle pressure: 0.000960433
Fluid pressure: 0.00115878

ExecutionTime = 691.3 s  ClockTime = 744 s  Iterations: 13.2481/762.481  Projected time to finish: 651.597 min
Time = 0.00467162


SOLVING PARTICLE DOMAIN

PARTICLE INFLOW BC 

Virtual number density of inserted particles: 1(1.10356e+06)
Particle Boundary Temp: 0.0033962
Particle Boundary Velocity: (-0.0125592 -0.0132417 -0.0069527)
--> FOAM Warning : 
    From function void Foam::particle::locate(const vector&, Foam::label, bool, Foam::string)
    in file particle/particle.C at line 495
    Particle initialised with a location outside of the mesh.
--> FOAM Warning : 
    From function void Foam::particle::locate(const vector&, Foam::label, bool, Foam::string)
    in file particle/particle.C at line 495
    Particle initialised with a location outside of the mesh.
--> FOAM Warning : 
    From function void Foam::particle::locate(const vector&, Foam::label, bool, Foam::string)
    in file particle/particle.C at line 495
    Particle initialised with a location outside of the mesh.
--> FOAM Warning : 
    From function void Foam::particle::locate(const vector&, Foam::label, bool, Foam::string)
    in file particle/particle.C at line 495
    Particle initialised with a location outside of the mesh.
--> FOAM Warning : 
    From function void Foam::particle::locate(const vector&, Foam::label, bool, Foam::string)
    in file particle/particle.C at line 495
    Particle initialised with a location outside of the mesh.
--> FOAM Warning : 
    From function void Foam::particle::locate(const vector&, Foam::label, bool, Foam::string)
    in file particle/particle.C at line 495
    Particle initialised with a location outside of the mesh.
--> FOAM Warning : 
    From function void Foam::particle::locate(const vector&, Foam::label, bool, Foam::string)
    in file particle/particle.C at line 495
    Particle initialised with a location outside of the mesh.
--> FOAM Warning : 
    From function void Foam::particle::locate(const vector&, Foam::label, bool, Foam::string)
    in file particle/particle.C at line 495
    Particle initialised with a location outside of the mesh.
--> FOAM Warning : 
    From function void Foam::particle::locate(const vector&, Foam::label, bool, Foam::string)
    in file particle/particle.C at line 495
    Particle initialised with a location outside of the mesh.
    Particles inserted              = 143
    Collisions                      = 21522043
    Acceptance rate                 = 0.503947

Cloud name: dsmc
    Number of dsmc particles        = 389635
    Number of molecules             = 7.7927e+21
    Mass in system                  = 0.000362361
    Average linear momentum         = (5.70613e-28 1.01317e-29 5.01861e-29)
   |Average linear momentum|        = 5.72905e-28
    Average linear kinetic energy   = 6.79428e-26
    Average internal energy         = 4.52741e-26
    Average total energy            = 1.13217e-25

SOLVING FLUID DOMAIN
deltaT = 0.000327877
Mean and max Courant Numbers = 0.191398 0.196971
diagonal:  Solving for rho, Initial residual = 0, Final residual = 0, No Iterations 0
diagonal:  Solving for rhoUx, Initial residual = 0, Final residual = 0, No Iterations 0
diagonal:  Solving for rhoE, Initial residual = 0, Final residual = 0, No Iterations 0

FLUID PRESSURE BC
Particle pressure: 0.000968349
Fluid pressure: 0.00115962

ExecutionTime = 755.86 s  ClockTime = 809 s  Iterations: 14.2481/762.481  Projected time to finish: 661.561 min
Time = 0.0049995


SOLVING PARTICLE DOMAIN

PARTICLE INFLOW BC 

Virtual number density of inserted particles: 1(1.11384e+06)
Particle Boundary Temp: 0.00340316
Particle Boundary Velocity: (-0.00312933 -0.0113954 0.00390106)
--> FOAM Warning : 
    From function void Foam::particle::locate(const vector&, Foam::label, bool, Foam::string)
    in file particle/particle.C at line 495
    Particle initialised with a location outside of the mesh.
--> FOAM Warning : 
    From function void Foam::particle::locate(const vector&, Foam::label, bool, Foam::string)
    in file particle/particle.C at line 495
    Particle initialised with a location outside of the mesh.
--> FOAM Warning : 
    From function void Foam::particle::locate(const vector&, Foam::label, bool, Foam::string)
    in file particle/particle.C at line 495
    Particle initialised with a location outside of the mesh.
--> FOAM Warning : 
    From function void Foam::particle::locate(const vector&, Foam::label, bool, Foam::string)
    in file particle/particle.C at line 495
    Particle initialised with a location outside of the mesh.
--> FOAM Warning : 
    From function void Foam::particle::locate(const vector&, Foam::label, bool, Foam::string)
    in file particle/particle.C at line 495
    Particle initialised with a location outside of the mesh.
--> FOAM Warning : 
    From function void Foam::particle::locate(const vector&, Foam::label, bool, Foam::string)
    in file particle/particle.C at line 495
    Particle initialised with a location outside of the mesh.
    Particles inserted              = 146
    Collisions                      = 21513628
    Acceptance rate                 = 0.503385

Cloud name: dsmc
    Number of dsmc particles        = 389626
    Number of molecules             = 7.79252e+21
    Mass in system                  = 0.000362352
    Average linear momentum         = (6.15077e-28 1.02949e-29 5.23703e-29)
   |Average linear momentum|        = 6.17389e-28
    Average linear kinetic energy   = 6.79733e-26
    Average internal energy         = 4.5242e-26
    Average total energy            = 1.13215e-25

SOLVING FLUID DOMAIN
deltaT = 0.000327877
Mean and max Courant Numbers = 0.191396 0.196702
diagonal:  Solving for rho, Initial residual = 0, Final residual = 0, No Iterations 0
diagonal:  Solving for rhoUx, Initial residual = 0, Final residual = 0, No Iterations 0
diagonal:  Solving for rhoE, Initial residual = 0, Final residual = 0, No Iterations 0

FLUID PRESSURE BC
Particle pressure: 0.000941571
Fluid pressure: 0.00115465

ExecutionTime = 820.74 s  ClockTime = 874 s  Iterations: 15.2481/762.481  Projected time to finish: 670.34 min
Time = 0.00532738


SOLVING PARTICLE DOMAIN

PARTICLE INFLOW BC 

Virtual number density of inserted particles: 1(1.11383e+06)
Particle Boundary Temp: 0.00340553
Particle Boundary Velocity: (0.00255298 7.51322e-05 0.00838729)
--> FOAM Warning : 
    From function void Foam::particle::locate(const vector&, Foam::label, bool, Foam::string)
    in file particle/particle.C at line 495
    Particle initialised with a location outside of the mesh.
--> FOAM Warning : 
    From function void Foam::particle::locate(const vector&, Foam::label, bool, Foam::string)
    in file particle/particle.C at line 495
    Particle initialised with a location outside of the mesh.
--> FOAM Warning : 
    From function void Foam::particle::locate(const vector&, Foam::label, bool, Foam::string)
    in file particle/particle.C at line 500
    Suppressing any further warnings about particles being located outside of the mesh.
    Particles inserted              = 147
    Collisions                      = 21505739
    Acceptance rate                 = 0.502919

Cloud name: dsmc
    Number of dsmc particles        = 389625
    Number of molecules             = 7.7925e+21
    Mass in system                  = 0.000362351
    Average linear momentum         = (6.57058e-28 7.80276e-30 5.24471e-29)
   |Average linear momentum|        = 6.59195e-28
    Average linear kinetic energy   = 6.79681e-26
    Average internal energy         = 4.52534e-26
    Average total energy            = 1.13222e-25

SOLVING FLUID DOMAIN
deltaT = 0.000327877
Mean and max Courant Numbers = 0.191396 0.196319
diagonal:  Solving for rho, Initial residual = 0, Final residual = 0, No Iterations 0
diagonal:  Solving for rhoUx, Initial residual = 0, Final residual = 0, No Iterations 0
diagonal:  Solving for rhoE, Initial residual = 0, Final residual = 0, No Iterations 0

FLUID PRESSURE BC
Particle pressure: 0.000953034
Fluid pressure: 0.00114596

ExecutionTime = 885.93 s  ClockTime = 940 s  Iterations: 16.2481/762.481  Projected time to finish: 678.141 min
Time = 0.00565525


SOLVING PARTICLE DOMAIN

PARTICLE INFLOW BC 

Virtual number density of inserted particles: 1(1.11363e+06)
Particle Boundary Temp: 0.00340934
Particle Boundary Velocity: (0.00981324 0.00491464 0.00996327)
    Particles inserted              = 148
    Collisions                      = 21493045
    Acceptance rate                 = 0.501931

Cloud name: dsmc
    Number of dsmc particles        = 389657
    Number of molecules             = 7.79314e+21
    Mass in system                  = 0.000362381
    Average linear momentum         = (6.93841e-28 8.27189e-30 5.31828e-29)
   |Average linear momentum|        = 6.95926e-28
    Average linear kinetic energy   = 6.80695e-26
    Average internal energy         = 4.51553e-26
    Average total energy            = 1.13225e-25

SOLVING FLUID DOMAIN
deltaT = 0.00033353
Mean and max Courant Numbers = 0.194701 0.199571
diagonal:  Solving for rho, Initial residual = 0, Final residual = 0, No Iterations 0
diagonal:  Solving for rhoUx, Initial residual = 0, Final residual = 0, No Iterations 0
diagonal:  Solving for rhoE, Initial residual = 0, Final residual = 0, No Iterations 0

FLUID PRESSURE BC
Particle pressure: 0.000962654
Fluid pressure: 0.0011338

ExecutionTime = 950.85 s  ClockTime = 1005 s  Iterations: 16.9557/749.557  Projected time to finish: 684.718 min
Time = 0.00598878


SOLVING PARTICLE DOMAIN

PARTICLE INFLOW BC 

Virtual number density of inserted particles: 1(1.11365e+06)
Particle Boundary Temp: 0.00340956
Particle Boundary Velocity: (0.00327534 0.00772908 0.0193386)
    Particles inserted              = 150
    Collisions                      = 21856758
    Acceptance rate                 = 0.5015

Cloud name: dsmc
    Number of dsmc particles        = 389660
    Number of molecules             = 7.7932e+21
    Mass in system                  = 0.000362384
    Average linear momentum         = (7.36681e-28 2.47068e-30 5.15589e-29)
   |Average linear momentum|        = 7.38487e-28
    Average linear kinetic energy   = 6.80459e-26
    Average internal energy         = 4.51835e-26
    Average total energy            = 1.13229e-25

SOLVING FLUID DOMAIN
deltaT = 0.00033353
Mean and max Courant Numbers = 0.194702 0.199392
diagonal:  Solving for rho, Initial residual = 0, Final residual = 0, No Iterations 0
diagonal:  Solving for rhoUx, Initial residual = 0, Final residual = 0, No Iterations 0
diagonal:  Solving for rhoE, Initial residual = 0, Final residual = 0, No Iterations 0

FLUID PRESSURE BC
Particle pressure: 0.0010241
Fluid pressure: 0.0011252

ExecutionTime = 1016.97 s  ClockTime = 1071 s  Iterations: 17.9557/749.557  Projected time to finish: 690.602 min
Time = 0.00632231


SOLVING PARTICLE DOMAIN

PARTICLE INFLOW BC 

Virtual number density of inserted particles: 1(1.11403e+06)
Particle Boundary Temp: 0.00344292
Particle Boundary Velocity: (0.000248732 -0.00350441 0.0247935)
    Particles inserted              = 150
    Collisions                      = 21840212
    Acceptance rate                 = 0.50099

Cloud name: dsmc
    Number of dsmc particles        = 389632
    Number of molecules             = 7.79264e+21
    Mass in system                  = 0.000362358
    Average linear momentum         = (7.84611e-28 2.30929e-30 5.36984e-29)
   |Average linear momentum|        = 7.8645e-28
    Average linear kinetic energy   = 6.80167e-26
    Average internal energy         = 4.52114e-26
    Average total energy            = 1.13228e-25

SOLVING FLUID DOMAIN
deltaT = 0.00033353
Mean and max Courant Numbers = 0.194704 0.199083
diagonal:  Solving for rho, Initial residual = 0, Final residual = 0, No Iterations 0
diagonal:  Solving for rhoUx, Initial residual = 0, Final residual = 0, No Iterations 0
diagonal:  Solving for rhoE, Initial residual = 0, Final residual = 0, No Iterations 0

FLUID PRESSURE BC
Particle pressure: 0.000954293
Fluid pressure: 0.00111759

ExecutionTime = 1083.26 s  ClockTime = 1137 s  Iterations: 18.9557/749.557  Projected time to finish: 695.859 min
Time = 0.00665584


SOLVING PARTICLE DOMAIN

PARTICLE INFLOW BC 

Virtual number density of inserted particles: 1(1.11008e+06)
Particle Boundary Temp: 0.00342542
Particle Boundary Velocity: (0.011797 -0.00845177 0.0303102)
    Particles inserted              = 151
    Collisions                      = 21831005
    Acceptance rate                 = 0.500365

Cloud name: dsmc
    Number of dsmc particles        = 389652
    Number of molecules             = 7.79304e+21
    Mass in system                  = 0.000362376
    Average linear momentum         = (8.22574e-28 -8.32628e-31 5.33107e-29)
   |Average linear momentum|        = 8.243e-28
    Average linear kinetic energy   = 6.80309e-26
    Average internal energy         = 4.51998e-26
    Average total energy            = 1.13231e-25

SOLVING FLUID DOMAIN
deltaT = 0.00033353
Mean and max Courant Numbers = 0.194709 0.19862
diagonal:  Solving for rho, Initial residual = 0, Final residual = 0, No Iterations 0
diagonal:  Solving for rhoUx, Initial residual = 0, Final residual = 0, No Iterations 0
diagonal:  Solving for rhoE, Initial residual = 0, Final residual = 0, No Iterations 0

FLUID PRESSURE BC
Particle pressure: 0.000954621
Fluid pressure: 0.00110311

ExecutionTime = 1149.6 s  ClockTime = 1204 s  Iterations: 19.9557/749.557  Projected time to finish: 700.508 min
Time = 0.00698937


SOLVING PARTICLE DOMAIN

PARTICLE INFLOW BC 

Virtual number density of inserted particles: 1(1.09956e+06)
Particle Boundary Temp: 0.00343086
Particle Boundary Velocity: (0.010062 -0.0133259 0.0323219)
    Particles inserted              = 149
    Collisions                      = 21826676
    Acceptance rate                 = 0.50018

Cloud name: dsmc
    Number of dsmc particles        = 389660
    Number of molecules             = 7.7932e+21
    Mass in system                  = 0.000362384
    Average linear momentum         = (8.63893e-28 1.50943e-31 5.26433e-29)
   |Average linear momentum|        = 8.65496e-28
    Average linear kinetic energy   = 6.80373e-26
    Average internal energy         = 4.51984e-26
    Average total energy            = 1.13236e-25

SOLVING FLUID DOMAIN
deltaT = 0.00033353
Mean and max Courant Numbers = 0.194712 0.19834
diagonal:  Solving for rho, Initial residual = 0, Final residual = 0, No Iterations 0
diagonal:  Solving for rhoUx, Initial residual = 0, Final residual = 0, No Iterations 0
diagonal:  Solving for rhoE, Initial residual = 0, Final residual = 0, No Iterations 0

FLUID PRESSURE BC
Particle pressure: 0.000915561
Fluid pressure: 0.00109054

ExecutionTime = 1215.69 s  ClockTime = 1270 s  Iterations: 20.9557/749.557  Projected time to finish: 704.464 min
Time = 0.0073229


SOLVING PARTICLE DOMAIN

PARTICLE INFLOW BC 

Virtual number density of inserted particles: 1(1.08731e+06)
Particle Boundary Temp: 0.00341851
Particle Boundary Velocity: (0.00686916 -0.021392 0.0246624)
    Particles inserted              = 148
    Collisions                      = 21811684
    Acceptance rate                 = 0.499794

Cloud name: dsmc
    Number of dsmc particles        = 389660
    Number of molecules             = 7.7932e+21
    Mass in system                  = 0.000362384
    Average linear momentum         = (9.04591e-28 3.48377e-30 5.23864e-29)
   |Average linear momentum|        = 9.06114e-28
    Average linear kinetic energy   = 6.80205e-26
    Average internal energy         = 4.52118e-26
    Average total energy            = 1.13232e-25

SOLVING FLUID DOMAIN
deltaT = 0.00033353
Mean and max Courant Numbers = 0.194714 0.198109
diagonal:  Solving for rho, Initial residual = 0, Final residual = 0, No Iterations 0
diagonal:  Solving for rhoUx, Initial residual = 0, Final residual = 0, No Iterations 0
diagonal:  Solving for rhoE, Initial residual = 0, Final residual = 0, No Iterations 0

FLUID PRESSURE BC
Particle pressure: 0.000940871
Fluid pressure: 0.00108037

ExecutionTime = 1281.76 s  ClockTime = 1336 s  Iterations: 21.9557/749.557  Projected time to finish: 707.947 min
Time = 0.00765643


SOLVING PARTICLE DOMAIN

PARTICLE INFLOW BC 

Virtual number density of inserted particles: 1(1.0801e+06)
Particle Boundary Temp: 0.0034207
Particle Boundary Velocity: (0.00635782 -0.0170249 0.0174721)
    Particles inserted              = 146
    Collisions                      = 21801990
    Acceptance rate                 = 0.49942

Cloud name: dsmc
    Number of dsmc particles        = 389674
    Number of molecules             = 7.79348e+21
    Mass in system                  = 0.000362397
    Average linear momentum         = (9.4484e-28 4.24621e-30 5.4376e-29)
   |Average linear momentum|        = 9.46413e-28
    Average linear kinetic energy   = 6.80383e-26
    Average internal energy         = 4.51968e-26
    Average total energy            = 1.13235e-25

SOLVING FLUID DOMAIN
deltaT = 0.00033353
Mean and max Courant Numbers = 0.19472 0.198191
diagonal:  Solving for rho, Initial residual = 0, Final residual = 0, No Iterations 0
diagonal:  Solving for rhoUx, Initial residual = 0, Final residual = 0, No Iterations 0
diagonal:  Solving for rhoE, Initial residual = 0, Final residual = 0, No Iterations 0

FLUID PRESSURE BC
Particle pressure: 0.000923047
Fluid pressure: 0.00107193

ExecutionTime = 1347.88 s  ClockTime = 1402 s  Iterations: 22.9557/749.557  Projected time to finish: 711.058 min
Time = 0.00798996


SOLVING PARTICLE DOMAIN

PARTICLE INFLOW BC 

Virtual number density of inserted particles: 1(1.06796e+06)
Particle Boundary Temp: 0.00342924
Particle Boundary Velocity: (-0.00228223 -0.0162536 0.0193834)
    Particles inserted              = 142
    Collisions                      = 21794882
    Acceptance rate                 = 0.499284

Cloud name: dsmc
    Number of dsmc particles        = 389673
    Number of molecules             = 7.79346e+21
    Mass in system                  = 0.000362396
    Average linear momentum         = (9.8612e-28 2.72014e-30 5.59605e-29)
   |Average linear momentum|        = 9.87711e-28
    Average linear kinetic energy   = 6.80668e-26
    Average internal energy         = 4.51651e-26
    Average total energy            = 1.13232e-25

SOLVING FLUID DOMAIN
deltaT = 0.00033353
Mean and max Courant Numbers = 0.194725 0.198137
diagonal:  Solving for rho, Initial residual = 0, Final residual = 0, No Iterations 0
diagonal:  Solving for rhoUx, Initial residual = 0, Final residual = 0, No Iterations 0
diagonal:  Solving for rhoE, Initial residual = 0, Final residual = 0, No Iterations 0

FLUID PRESSURE BC
Particle pressure: 0.000946517
Fluid pressure: 0.00106883

ExecutionTime = 1413.91 s  ClockTime = 1468 s  Iterations: 23.9557/749.557  Projected time to finish: 713.771 min
Time = 0.00832349


SOLVING PARTICLE DOMAIN

PARTICLE INFLOW BC 

Virtual number density of inserted particles: 1(1.0644e+06)
Particle Boundary Temp: 0.0034363
Particle Boundary Velocity: (-0.0109546 -0.0169374 0.024259)
    Particles inserted              = 142
    Collisions                      = 21779514
    Acceptance rate                 = 0.498779

Cloud name: dsmc
    Number of dsmc particles        = 389673
    Number of molecules             = 7.79346e+21
    Mass in system                  = 0.000362396
    Average linear momentum         = (1.02816e-27 4.76356e-30 5.65874e-29)
   |Average linear momentum|        = 1.02973e-27
    Average linear kinetic energy   = 6.80848e-26
    Average internal energy         = 4.51503e-26
    Average total energy            = 1.13235e-25

SOLVING FLUID DOMAIN
deltaT = 0.00033353
Mean and max Courant Numbers = 0.194735 0.198117
diagonal:  Solving for rho, Initial residual = 0, Final residual = 0, No Iterations 0
diagonal:  Solving for rhoUx, Initial residual = 0, Final residual = 0, No Iterations 0
diagonal:  Solving for rhoE, Initial residual = 0, Final residual = 0, No Iterations 0

FLUID PRESSURE BC
Particle pressure: 0.000928181
Fluid pressure: 0.00107037

ExecutionTime = 1480.32 s  ClockTime = 1535 s  Iterations: 24.9557/749.557  Projected time to finish: 716.363 min
Time = 0.00865702


SOLVING PARTICLE DOMAIN

PARTICLE INFLOW BC 

Virtual number density of inserted particles: 1(1.0609e+06)
Particle Boundary Temp: 0.00343354
Particle Boundary Velocity: (-0.0147367 -0.0129273 0.0263989)
    Particles inserted              = 140
    Collisions                      = 21777083
    Acceptance rate                 = 0.498541

Cloud name: dsmc
    Number of dsmc particles        = 389686
    Number of molecules             = 7.79372e+21
    Mass in system                  = 0.000362408
    Average linear momentum         = (1.06407e-27 7.51618e-30 5.57448e-29)
   |Average linear momentum|        = 1.06555e-27
    Average linear kinetic energy   = 6.80916e-26
    Average internal energy         = 4.51446e-26
    Average total energy            = 1.13236e-25

SOLVING FLUID DOMAIN
deltaT = 0.00033353
Mean and max Courant Numbers = 0.194743 0.198127
diagonal:  Solving for rho, Initial residual = 0, Final residual = 0, No Iterations 0
diagonal:  Solving for rhoUx, Initial residual = 0, Final residual = 0, No Iterations 0
diagonal:  Solving for rhoE, Initial residual = 0, Final residual = 0, No Iterations 0

FLUID PRESSURE BC
Particle pressure: 0.000914934
Fluid pressure: 0.00107316

ExecutionTime = 1546.76 s  ClockTime = 1601 s  Iterations: 25.9557/749.557  Projected time to finish: 718.684 min
Time = 0.00899055


SOLVING PARTICLE DOMAIN

PARTICLE INFLOW BC 

Virtual number density of inserted particles: 1(1.05866e+06)
Particle Boundary Temp: 0.00342515
Particle Boundary Velocity: (-0.0192936 -0.00313644 0.0306233)
    Particles inserted              = 139
    Collisions                      = 21770331
    Acceptance rate                 = 0.498321

Cloud name: dsmc
    Number of dsmc particles        = 389686
    Number of molecules             = 7.79372e+21
    Mass in system                  = 0.000362408
    Average linear momentum         = (1.10096e-27 3.57358e-30 5.56996e-29)
   |Average linear momentum|        = 1.10237e-27
    Average linear kinetic energy   = 6.80807e-26
    Average internal energy         = 4.51589e-26
    Average total energy            = 1.1324e-25

SOLVING FLUID DOMAIN
deltaT = 0.00033353
Mean and max Courant Numbers = 0.194748 0.198466
diagonal:  Solving for rho, Initial residual = 0, Final residual = 0, No Iterations 0
diagonal:  Solving for rhoUx, Initial residual = 0, Final residual = 0, No Iterations 0
diagonal:  Solving for rhoE, Initial residual = 0, Final residual = 0, No Iterations 0

FLUID PRESSURE BC
Particle pressure: 0.000958704
Fluid pressure: 0.00107747

ExecutionTime = 1622.81 s  ClockTime = 1678 s  Iterations: 26.9557/749.557  Projected time to finish: 725.043 min
Time = 0.00932408


SOLVING PARTICLE DOMAIN

PARTICLE INFLOW BC 

Virtual number density of inserted particles: 1(1.05849e+06)
Particle Boundary Temp: 0.00344922
Particle Boundary Velocity: (-0.0182989 -0.00752824 0.0303564)
    Particles inserted              = 139
    Collisions                      = 21746793
    Acceptance rate                 = 0.497662

Cloud name: dsmc
    Number of dsmc particles        = 389668
    Number of molecules             = 7.79336e+21
    Mass in system                  = 0.000362391
    Average linear momentum         = (1.14674e-27 4.65199e-30 5.39489e-29)
   |Average linear momentum|        = 1.14802e-27
    Average linear kinetic energy   = 6.80817e-26
    Average internal energy         = 4.51558e-26
    Average total energy            = 1.13237e-25

SOLVING FLUID DOMAIN
deltaT = 0.00033353
Mean and max Courant Numbers = 0.194754 0.19884
diagonal:  Solving for rho, Initial residual = 0, Final residual = 0, No Iterations 0
diagonal:  Solving for rhoUx, Initial residual = 0, Final residual = 0, No Iterations 0
diagonal:  Solving for rhoE, Initial residual = 0, Final residual = 0, No Iterations 0

FLUID PRESSURE BC
Particle pressure: 0.000925832
Fluid pressure: 0.00108104

ExecutionTime = 1689.44 s  ClockTime = 1744 s  Iterations: 27.9557/749.557  Projected time to finish: 726.805 min
Time = 0.00965761


SOLVING PARTICLE DOMAIN

PARTICLE INFLOW BC 

Virtual number density of inserted particles: 1(1.05643e+06)
Particle Boundary Temp: 0.00345
Particle Boundary Velocity: (-0.00684323 -0.00685546 0.0287417)
    Particles inserted              = 141
    Collisions                      = 21742485
    Acceptance rate                 = 0.497419

Cloud name: dsmc
    Number of dsmc particles        = 389674
    Number of molecules             = 7.79348e+21
    Mass in system                  = 0.000362397
    Average linear momentum         = (1.18569e-27 3.14386e-30 5.21107e-29)
   |Average linear momentum|        = 1.18684e-27
    Average linear kinetic energy   = 6.80732e-26
    Average internal energy         = 4.51684e-26
    Average total energy            = 1.13242e-25

SOLVING FLUID DOMAIN
deltaT = 0.00033353
Mean and max Courant Numbers = 0.194752 0.198035
diagonal:  Solving for rho, Initial residual = 0, Final residual = 0, No Iterations 0
diagonal:  Solving for rhoUx, Initial residual = 0, Final residual = 0, No Iterations 0
diagonal:  Solving for rhoE, Initial residual = 0, Final residual = 0, No Iterations 0

FLUID PRESSURE BC
Particle pressure: 0.000929213
Fluid pressure: 0.00107873

ExecutionTime = 1756.59 s  ClockTime = 1812 s  Iterations: 28.9557/749.557  Projected time to finish: 728.584 min
Time = 0.00999114


SOLVING PARTICLE DOMAIN

PARTICLE INFLOW BC 

Virtual number density of inserted particles: 1(1.04916e+06)
Particle Boundary Temp: 0.00347102
Particle Boundary Velocity: (-0.00996884 -0.0112545 0.0212983)
    Particles inserted              = 140
    Collisions                      = 21724185
    Acceptance rate                 = 0.49704

Cloud name: dsmc
    Number of dsmc particles        = 389682
    Number of molecules             = 7.79364e+21
    Mass in system                  = 0.000362404
    Average linear momentum         = (1.22443e-27 3.71126e-30 5.036e-29)
   |Average linear momentum|        = 1.22547e-27
    Average linear kinetic energy   = 6.8149e-26
    Average internal energy         = 4.50916e-26
    Average total energy            = 1.13241e-25

SOLVING FLUID DOMAIN
deltaT = 0.00033353
Mean and max Courant Numbers = 0.194759 0.198467
diagonal:  Solving for rho, Initial residual = 0, Final residual = 0, No Iterations 0
diagonal:  Solving for rhoUx, Initial residual = 0, Final residual = 0, No Iterations 0
diagonal:  Solving for rhoE, Initial residual = 0, Final residual = 0, No Iterations 0

FLUID PRESSURE BC
Particle pressure: 0.000901512
Fluid pressure: 0.00107924

ExecutionTime = 1823.08 s  ClockTime = 1878 s  Iterations: 29.9557/749.557  Projected time to finish: 729.905 min
Time = 0.0103247


SOLVING PARTICLE DOMAIN

PARTICLE INFLOW BC 

Virtual number density of inserted particles: 1(1.04672e+06)
Particle Boundary Temp: 0.00345858
Particle Boundary Velocity: (-0.0108318 -0.0123041 0.0161554)
    Particles inserted              = 139
    Collisions                      = 21717357
    Acceptance rate                 = 0.496602

Cloud name: dsmc
    Number of dsmc particles        = 389692
    Number of molecules             = 7.79384e+21
    Mass in system                  = 0.000362414
    Average linear momentum         = (1.26153e-27 4.13325e-30 4.83918e-29)
   |Average linear momentum|        = 1.26246e-27
    Average linear kinetic energy   = 6.81726e-26
    Average internal energy         = 4.5066e-26
    Average total energy            = 1.13239e-25

SOLVING FLUID DOMAIN
deltaT = 0.00033353
Mean and max Courant Numbers = 0.194763 0.198505
diagonal:  Solving for rho, Initial residual = 0, Final residual = 0, No Iterations 0
diagonal:  Solving for rhoUx, Initial residual = 0, Final residual = 0, No Iterations 0
diagonal:  Solving for rhoE, Initial residual = 0, Final residual = 0, No Iterations 0

FLUID PRESSURE BC
Particle pressure: 0.000887326
Fluid pressure: 0.00108

ExecutionTime = 1889.78 s  ClockTime = 1945 s  Iterations: 30.9557/749.557  Projected time to finish: 731.151 min
Time = 0.0106582


SOLVING PARTICLE DOMAIN

PARTICLE INFLOW BC 

Virtual number density of inserted particles: 1(1.04812e+06)
Particle Boundary Temp: 0.00343236
Particle Boundary Velocity: (-0.0141564 -0.0137737 0.0103778)
    Particles inserted              = 138
    Collisions                      = 21708188
    Acceptance rate                 = 0.496385

Cloud name: dsmc
    Number of dsmc particles        = 389704
    Number of molecules             = 7.79408e+21
    Mass in system                  = 0.000362425
    Average linear momentum         = (1.29688e-27 5.12215e-30 4.77374e-29)
   |Average linear momentum|        = 1.29777e-27
    Average linear kinetic energy   = 6.81079e-26
    Average internal energy         = 4.51349e-26
    Average total energy            = 1.13243e-25

SOLVING FLUID DOMAIN
deltaT = 0.00033353
Mean and max Courant Numbers = 0.194767 0.198564
diagonal:  Solving for rho, Initial residual = 0, Final residual = 0, No Iterations 0
diagonal:  Solving for rhoUx, Initial residual = 0, Final residual = 0, No Iterations 0
diagonal:  Solving for rhoE, Initial residual = 0, Final residual = 0, No Iterations 0

FLUID PRESSURE BC
Particle pressure: 0.000932215
Fluid pressure: 0.00108291

ExecutionTime = 1956.71 s  ClockTime = 2012 s  Iterations: 31.9557/749.557  Projected time to finish: 732.335 min
Time = 0.0109917


SOLVING PARTICLE DOMAIN

PARTICLE INFLOW BC 

Virtual number density of inserted particles: 1(1.05479e+06)
Particle Boundary Temp: 0.00343065
Particle Boundary Velocity: (-0.0171136 -0.0159082 0.00644973)
    Particles inserted              = 139
    Collisions                      = 21698137
    Acceptance rate                 = 0.496285

Cloud name: dsmc
    Number of dsmc particles        = 389705
    Number of molecules             = 7.7941e+21
    Mass in system                  = 0.000362426
    Average linear momentum         = (1.33231e-27 3.77694e-30 4.69532e-29)
   |Average linear momentum|        = 1.33314e-27
    Average linear kinetic energy   = 6.82067e-26
    Average internal energy         = 4.5031e-26
    Average total energy            = 1.13238e-25

SOLVING FLUID DOMAIN
deltaT = 0.00033353
Mean and max Courant Numbers = 0.194774 0.199027
diagonal:  Solving for rho, Initial residual = 0, Final residual = 0, No Iterations 0
diagonal:  Solving for rhoUx, Initial residual = 0, Final residual = 0, No Iterations 0
diagonal:  Solving for rhoE, Initial residual = 0, Final residual = 0, No Iterations 0

FLUID PRESSURE BC
Particle pressure: 0.00092126
Fluid pressure: 0.00108784

ExecutionTime = 2023.13 s  ClockTime = 2079 s  Iterations: 32.9557/749.557  Projected time to finish: 733.195 min
Time = 0.0113253


SOLVING PARTICLE DOMAIN

PARTICLE INFLOW BC 

Virtual number density of inserted particles: 1(1.05775e+06)
Particle Boundary Temp: 0.00342883
Particle Boundary Velocity: (-0.0220165 -0.018205 0.0078365)
    Particles inserted              = 138
    Collisions                      = 21684821
    Acceptance rate                 = 0.496074

Cloud name: dsmc
    Number of dsmc particles        = 389687
    Number of molecules             = 7.79374e+21
    Mass in system                  = 0.000362409
    Average linear momentum         = (1.37503e-27 2.4072e-30 4.6634e-29)
   |Average linear momentum|        = 1.37582e-27
    Average linear kinetic energy   = 6.82234e-26
    Average internal energy         = 4.50102e-26
    Average total energy            = 1.13234e-25

SOLVING FLUID DOMAIN
deltaT = 0.00033353
Mean and max Courant Numbers = 0.194781 0.199589
diagonal:  Solving for rho, Initial residual = 0, Final residual = 0, No Iterations 0
diagonal:  Solving for rhoUx, Initial residual = 0, Final residual = 0, No Iterations 0
diagonal:  Solving for rhoE, Initial residual = 0, Final residual = 0, No Iterations 0

FLUID PRESSURE BC
Particle pressure: 0.000870765
Fluid pressure: 0.00109475

ExecutionTime = 2089.33 s  ClockTime = 2145 s  Iterations: 33.9557/749.557  Projected time to finish: 733.861 min
Time = 0.0116588


SOLVING PARTICLE DOMAIN

PARTICLE INFLOW BC 

Virtual number density of inserted particles: 1(1.05953e+06)
Particle Boundary Temp: 0.00339796
Particle Boundary Velocity: (-0.0145246 -0.0192408 0.0131387)
    Particles inserted              = 139
    Collisions                      = 21680271
    Acceptance rate                 = 0.495982

Cloud name: dsmc
    Number of dsmc particles        = 389694
    Number of molecules             = 7.79388e+21
    Mass in system                  = 0.000362415
    Average linear momentum         = (1.41311e-27 2.44929e-30 4.39499e-29)
   |Average linear momentum|        = 1.4138e-27
    Average linear kinetic energy   = 6.81193e-26
    Average internal energy         = 4.51149e-26
    Average total energy            = 1.13234e-25

SOLVING FLUID DOMAIN
deltaT = 0.00033353
Mean and max Courant Numbers = 0.194779 0.198642
diagonal:  Solving for rho, Initial residual = 0, Final residual = 0, No Iterations 0
diagonal:  Solving for rhoUx, Initial residual = 0, Final residual = 0, No Iterations 0
diagonal:  Solving for rhoE, Initial residual = 0, Final residual = 0, No Iterations 0

FLUID PRESSURE BC
Particle pressure: 0.00095281
Fluid pressure: 0.00109724

ExecutionTime = 2155.55 s  ClockTime = 2211 s  Iterations: 34.9557/749.557  Projected time to finish: 734.433 min
Time = 0.0119923


SOLVING PARTICLE DOMAIN

PARTICLE INFLOW BC 

Virtual number density of inserted particles: 1(1.06711e+06)
Particle Boundary Temp: 0.00341626
Particle Boundary Velocity: (-0.0108809 -0.0224239 0.0140418)
    Particles inserted              = 141
    Collisions                      = 21661055
    Acceptance rate                 = 0.495329

Cloud name: dsmc
    Number of dsmc particles        = 389695
    Number of molecules             = 7.7939e+21
    Mass in system                  = 0.000362416
    Average linear momentum         = (1.45161e-27 3.2505e-30 4.44157e-29)
   |Average linear momentum|        = 1.4523e-27
    Average linear kinetic energy   = 6.81151e-26
    Average internal energy         = 4.51172e-26
    Average total energy            = 1.13232e-25

SOLVING FLUID DOMAIN
deltaT = 0.00033353
Mean and max Courant Numbers = 0.194783 0.198764
diagonal:  Solving for rho, Initial residual = 0, Final residual = 0, No Iterations 0
diagonal:  Solving for rhoUx, Initial residual = 0, Final residual = 0, No Iterations 0
diagonal:  Solving for rhoE, Initial residual = 0, Final residual = 0, No Iterations 0

FLUID PRESSURE BC
Particle pressure: 0.000925012
Fluid pressure: 0.00109882

ExecutionTime = 2222.75 s  ClockTime = 2278 s  Iterations: 35.9557/749.557  Projected time to finish: 735.236 min
Time = 0.0123259


SOLVING PARTICLE DOMAIN

PARTICLE INFLOW BC 

Virtual number density of inserted particles: 1(1.07116e+06)
Particle Boundary Temp: 0.00341095
Particle Boundary Velocity: (-0.0133667 -0.017227 0.0177411)
    Particles inserted              = 142
    Collisions                      = 21657470
    Acceptance rate                 = 0.495295

Cloud name: dsmc
    Number of dsmc particles        = 389684
    Number of molecules             = 7.79368e+21
    Mass in system                  = 0.000362406
    Average linear momentum         = (1.49423e-27 1.81927e-30 4.31498e-29)
   |Average linear momentum|        = 1.49486e-27
    Average linear kinetic energy   = 6.8203e-26
    Average internal energy         = 4.50268e-26
    Average total energy            = 1.1323e-25

SOLVING FLUID DOMAIN
deltaT = 0.00033353
Mean and max Courant Numbers = 0.194787 0.198935
diagonal:  Solving for rho, Initial residual = 0, Final residual = 0, No Iterations 0
diagonal:  Solving for rhoUx, Initial residual = 0, Final residual = 0, No Iterations 0
diagonal:  Solving for rhoE, Initial residual = 0, Final residual = 0, No Iterations 0

FLUID PRESSURE BC
Particle pressure: 0.000896296
Fluid pressure: 0.00110143

ExecutionTime = 2289.33 s  ClockTime = 2345 s  Iterations: 36.9557/749.557  Projected time to finish: 735.736 min
Time = 0.0126594


SOLVING PARTICLE DOMAIN

PARTICLE INFLOW BC 

Virtual number density of inserted particles: 1(1.07408e+06)
Particle Boundary Temp: 0.00338866
Particle Boundary Velocity: (-0.00912233 -0.0208591 0.0135313)
    Particles inserted              = 142
    Collisions                      = 21642700
    Acceptance rate                 = 0.49488

Cloud name: dsmc
    Number of dsmc particles        = 389699
    Number of molecules             = 7.79398e+21
    Mass in system                  = 0.00036242
    Average linear momentum         = (1.52969e-27 8.29726e-31 4.39963e-29)
   |Average linear momentum|        = 1.53032e-27
    Average linear kinetic energy   = 6.82e-26
    Average internal energy         = 4.50319e-26
    Average total energy            = 1.13232e-25

SOLVING FLUID DOMAIN
deltaT = 0.00033353
Mean and max Courant Numbers = 0.194786 0.198366
diagonal:  Solving for rho, Initial residual = 0, Final residual = 0, No Iterations 0
diagonal:  Solving for rhoUx, Initial residual = 0, Final residual = 0, No Iterations 0
diagonal:  Solving for rhoE, Initial residual = 0, Final residual = 0, No Iterations 0

FLUID PRESSURE BC
Particle pressure: 0.000946071
Fluid pressure: 0.00110147

ExecutionTime = 2355.96 s  ClockTime = 2412 s  Iterations: 37.9557/749.557  Projected time to finish: 736.167 min
Time = 0.0129929


SOLVING PARTICLE DOMAIN

PARTICLE INFLOW BC 

Virtual number density of inserted particles: 1(1.07731e+06)
Particle Boundary Temp: 0.00340419
Particle Boundary Velocity: (-0.0107527 -0.0219727 0.00558797)
    Particles inserted              = 142
    Collisions                      = 21633723
    Acceptance rate                 = 0.494694

Cloud name: dsmc
    Number of dsmc particles        = 389699
    Number of molecules             = 7.79398e+21
    Mass in system                  = 0.00036242
    Average linear momentum         = (1.57129e-27 -9.17616e-31 4.34876e-29)
   |Average linear momentum|        = 1.5719e-27
    Average linear kinetic energy   = 6.82599e-26
    Average internal energy         = 4.49751e-26
    Average total energy            = 1.13235e-25

SOLVING FLUID DOMAIN
deltaT = 0.00033353
Mean and max Courant Numbers = 0.194791 0.198646
diagonal:  Solving for rho, Initial residual = 0, Final residual = 0, No Iterations 0
diagonal:  Solving for rhoUx, Initial residual = 0, Final residual = 0, No Iterations 0
diagonal:  Solving for rhoE, Initial residual = 0, Final residual = 0, No Iterations 0

FLUID PRESSURE BC
Particle pressure: 0.000914947
Fluid pressure: 0.00110262

ExecutionTime = 2422.31 s  ClockTime = 2478 s  Iterations: 38.9557/749.557  Projected time to finish: 736.433 min
Time = 0.0133264


SOLVING PARTICLE DOMAIN

PARTICLE INFLOW BC 

Virtual number density of inserted particles: 1(1.07989e+06)
Particle Boundary Temp: 0.00339131
Particle Boundary Velocity: (-0.00594963 -0.0240428 0.000284738)
    Particles inserted              = 142
    Collisions                      = 21625447
    Acceptance rate                 = 0.494543

Cloud name: dsmc
    Number of dsmc particles        = 389714
    Number of molecules             = 7.79428e+21
    Mass in system                  = 0.000362434
    Average linear momentum         = (1.60925e-27 -2.30682e-30 4.52367e-29)
   |Average linear momentum|        = 1.60988e-27
    Average linear kinetic energy   = 6.83764e-26
    Average internal energy         = 4.48653e-26
    Average total energy            = 1.13242e-25

SOLVING FLUID DOMAIN
deltaT = 0.00033353
Mean and max Courant Numbers = 0.19479 0.198354
diagonal:  Solving for rho, Initial residual = 0, Final residual = 0, No Iterations 0
diagonal:  Solving for rhoUx, Initial residual = 0, Final residual = 0, No Iterations 0
diagonal:  Solving for rhoE, Initial residual = 0, Final residual = 0, No Iterations 0

FLUID PRESSURE BC
Particle pressure: 0.000963303
Fluid pressure: 0.00110108

ExecutionTime = 2488.67 s  ClockTime = 2545 s  Iterations: 39.9557/749.557  Projected time to finish: 736.633 min
Time = 0.01366


SOLVING PARTICLE DOMAIN

PARTICLE INFLOW BC 

Virtual number density of inserted particles: 1(1.08336e+06)
Particle Boundary Temp: 0.00340893
Particle Boundary Velocity: (-0.00248698 -0.0328521 -0.000251365)
    Particles inserted              = 145
    Collisions                      = 21613831
    Acceptance rate                 = 0.494188

Cloud name: dsmc
    Number of dsmc particles        = 389724
    Number of molecules             = 7.79448e+21
    Mass in system                  = 0.000362443
    Average linear momentum         = (1.64871e-27 9.62048e-32 4.24113e-29)
   |Average linear momentum|        = 1.64926e-27
    Average linear kinetic energy   = 6.80878e-26
    Average internal energy         = 4.51516e-26
    Average total energy            = 1.13239e-25

SOLVING FLUID DOMAIN
deltaT = 0.00033353
[...]


SOLVING PARTICLE DOMAIN

PARTICLE INFLOW BC 

Virtual number density of inserted particles: 1(1.06622e+06)
Particle Boundary Temp: 0.00345355
Particle Boundary Velocity: (0.00330686 -0.00433133 -0.0221021)
    Particles inserted              = 142
    Collisions                      = 14085121
    Acceptance rate                 = 0.463008

Cloud name: dsmc
    Number of dsmc particles        = 392666
    Number of molecules             = 7.85332e+21
    Mass in system                  = 0.000365179
    Average linear momentum         = (2.88258e-26 1.94051e-29 1.49381e-29)
   |Average linear momentum|        = 2.88258e-26
    Average linear kinetic energy   = 7.28011e-26
    Average internal energy         = 4.08937e-26
    Average total energy            = 1.13695e-25

SOLVING FLUID DOMAIN
deltaT = 0.000328947
Mean and max Courant Numbers = 0.193478 0.198602
diagonal:  Solving for rho, Initial residual = 0, Final residual = 0, No Iterations 0
diagonal:  Solving for rhoUx, Initial residual = 0, Final residual = 0, No Iterations 0
diagonal:  Solving for rhoE, Initial residual = 0, Final residual = 0, No Iterations 0

FLUID PRESSURE BC
Particle pressure: 0.000932131
Fluid pressure: 0.00105748

ExecutionTime = 41429.5 s  ClockTime = 79819 s  Iterations: 746/760  Projected time to finish: 12.9583 min
Time = 0.245724


SOLVING PARTICLE DOMAIN

PARTICLE INFLOW BC 

Virtual number density of inserted particles: 1(1.06054e+06)
Particle Boundary Temp: 0.00344252
Particle Boundary Velocity: (0.0071019 -0.00206393 -0.0169922)
    Particles inserted              = 142
    Collisions                      = 14076322
    Acceptance rate                 = 0.463066

Cloud name: dsmc
    Number of dsmc particles        = 392686
    Number of molecules             = 7.85372e+21
    Mass in system                  = 0.000365198
    Average linear momentum         = (2.88608e-26 1.80948e-29 1.57778e-29)
   |Average linear momentum|        = 2.88608e-26
    Average linear kinetic energy   = 7.28618e-26
    Average internal energy         = 4.0836e-26
    Average total energy            = 1.13698e-25

SOLVING FLUID DOMAIN
deltaT = 0.000328947
Mean and max Courant Numbers = 0.193461 0.198232
diagonal:  Solving for rho, Initial residual = 0, Final residual = 0, No Iterations 0
diagonal:  Solving for rhoUx, Initial residual = 0, Final residual = 0, No Iterations 0
diagonal:  Solving for rhoE, Initial residual = 0, Final residual = 0, No Iterations 0

FLUID PRESSURE BC
Particle pressure: 0.000933336
Fluid pressure: 0.00105288

ExecutionTime = 41465.3 s  ClockTime = 79855 s  Iterations: 747/760  Projected time to finish: 12.027 min
Time = 0.246053


SOLVING PARTICLE DOMAIN

PARTICLE INFLOW BC 

Virtual number density of inserted particles: 1(1.05511e+06)
Particle Boundary Temp: 0.00344011
Particle Boundary Velocity: (0.00470816 -0.00284496 -0.0123037)
    Particles inserted              = 140
    Collisions                      = 14060453
    Acceptance rate                 = 0.462855

Cloud name: dsmc
    Number of dsmc particles        = 392693
    Number of molecules             = 7.85386e+21
    Mass in system                  = 0.000365204
    Average linear momentum         = (2.88974e-26 1.76256e-29 1.72596e-29)
   |Average linear momentum|        = 2.88974e-26
    Average linear kinetic energy   = 7.28598e-26
    Average internal energy         = 4.08385e-26
    Average total energy            = 1.13698e-25

SOLVING FLUID DOMAIN
deltaT = 0.000328947
Mean and max Courant Numbers = 0.19348 0.19768
diagonal:  Solving for rho, Initial residual = 0, Final residual = 0, No Iterations 0
diagonal:  Solving for rhoUx, Initial residual = 0, Final residual = 0, No Iterations 0
diagonal:  Solving for rhoE, Initial residual = 0, Final residual = 0, No Iterations 0

FLUID PRESSURE BC
Particle pressure: 0.000912065
Fluid pressure: 0.00105049

ExecutionTime = 41501.2 s  ClockTime = 79891 s  Iterations: 748/760  Projected time to finish: 11.0966 min
Time = 0.246382


SOLVING PARTICLE DOMAIN

PARTICLE INFLOW BC 

Virtual number density of inserted particles: 1(1.04938e+06)
Particle Boundary Temp: 0.0034304
Particle Boundary Velocity: (-0.00351135 -0.00517625 -0.0130207)
    Particles inserted              = 139
    Collisions                      = 14053734
    Acceptance rate                 = 0.462898

Cloud name: dsmc
    Number of dsmc particles        = 392702
    Number of molecules             = 7.85404e+21
    Mass in system                  = 0.000365213
    Average linear momentum         = (2.89325e-26 1.58518e-29 1.4703e-29)
   |Average linear momentum|        = 2.89326e-26
    Average linear kinetic energy   = 7.29542e-26
    Average internal energy         = 4.07481e-26
    Average total energy            = 1.13702e-25

SOLVING FLUID DOMAIN
deltaT = 0.000328947
Mean and max Courant Numbers = 0.193523 0.197915
diagonal:  Solving for rho, Initial residual = 0, Final residual = 0, No Iterations 0
diagonal:  Solving for rhoUx, Initial residual = 0, Final residual = 0, No Iterations 0
diagonal:  Solving for rhoE, Initial residual = 0, Final residual = 0, No Iterations 0

FLUID PRESSURE BC
Particle pressure: 0.000911253
Fluid pressure: 0.00105237

ExecutionTime = 41537.1 s  ClockTime = 79927 s  Iterations: 749/760  Projected time to finish: 10.1671 min
Time = 0.246711


SOLVING PARTICLE DOMAIN

PARTICLE INFLOW BC 

Virtual number density of inserted particles: 1(1.04521e+06)
Particle Boundary Temp: 0.00342767
Particle Boundary Velocity: (-0.00742997 -0.0109859 -0.0134635)
    Particles inserted              = 138
    Collisions                      = 14045279
    Acceptance rate                 = 0.46293

Cloud name: dsmc
    Number of dsmc particles        = 392704
    Number of molecules             = 7.85408e+21
    Mass in system                  = 0.000365215
    Average linear momentum         = (2.89687e-26 1.72468e-29 1.35874e-29)
   |Average linear momentum|        = 2.89687e-26
    Average linear kinetic energy   = 7.29428e-26
    Average internal energy         = 4.07649e-26
    Average total energy            = 1.13708e-25

SOLVING FLUID DOMAIN
deltaT = 0.000328947
Mean and max Courant Numbers = 0.193564 0.198298
diagonal:  Solving for rho, Initial residual = 0, Final residual = 0, No Iterations 0
diagonal:  Solving for rhoUx, Initial residual = 0, Final residual = 0, No Iterations 0
diagonal:  Solving for rhoE, Initial residual = 0, Final residual = 0, No Iterations 0

FLUID PRESSURE BC
Particle pressure: 0.000902001
Fluid pressure: 0.00105585

ExecutionTime = 41572.8 s  ClockTime = 79963 s  Iterations: 750/760  Projected time to finish: 9.23841 min
Time = 0.247039


SOLVING PARTICLE DOMAIN

PARTICLE INFLOW BC 

Virtual number density of inserted particles: 1(1.0418e+06)
Particle Boundary Temp: 0.00342498
Particle Boundary Velocity: (-0.0160253 -0.0133297 -0.0141395)
    Particles inserted              = 134
    Collisions                      = 14033003
    Acceptance rate                 = 0.462953

Cloud name: dsmc
    Number of dsmc particles        = 392699
    Number of molecules             = 7.85398e+21
    Mass in system                  = 0.00036521
    Average linear momentum         = (2.90069e-26 1.95403e-29 1.2006e-29)
   |Average linear momentum|        = 2.90069e-26
    Average linear kinetic energy   = 7.29112e-26
    Average internal energy         = 4.07924e-26
    Average total energy            = 1.13704e-25

SOLVING FLUID DOMAIN
deltaT = 0.000328947
Mean and max Courant Numbers = 0.193583 0.198764
diagonal:  Solving for rho, Initial residual = 0, Final residual = 0, No Iterations 0
diagonal:  Solving for rhoUx, Initial residual = 0, Final residual = 0, No Iterations 0
diagonal:  Solving for rhoE, Initial residual = 0, Final residual = 0, No Iterations 0

FLUID PRESSURE BC
Particle pressure: 0.000890115
Fluid pressure: 0.00106315

ExecutionTime = 41608.2 s  ClockTime = 79998 s  Iterations: 751/760  Projected time to finish: 8.31057 min
Time = 0.247368


SOLVING PARTICLE DOMAIN

PARTICLE INFLOW BC 

Virtual number density of inserted particles: 1(1.04177e+06)
Particle Boundary Temp: 0.00341356
Particle Boundary Velocity: (-0.0119985 -0.0104853 -0.02244)
    Particles inserted              = 136
    Collisions                      = 14021864
    Acceptance rate                 = 0.462913

Cloud name: dsmc
    Number of dsmc particles        = 392693
    Number of molecules             = 7.85386e+21
    Mass in system                  = 0.000365204
    Average linear momentum         = (2.90459e-26 1.75123e-29 1.12223e-29)
   |Average linear momentum|        = 2.90459e-26
    Average linear kinetic energy   = 7.29867e-26
    Average internal energy         = 4.0713e-26
    Average total energy            = 1.137e-25

SOLVING FLUID DOMAIN
deltaT = 0.000328947
Mean and max Courant Numbers = 0.193577 0.199046
diagonal:  Solving for rho, Initial residual = 0, Final residual = 0, No Iterations 0
diagonal:  Solving for rhoUx, Initial residual = 0, Final residual = 0, No Iterations 0
diagonal:  Solving for rhoE, Initial residual = 0, Final residual = 0, No Iterations 0

FLUID PRESSURE BC
Particle pressure: 0.000862259
Fluid pressure: 0.00106793

ExecutionTime = 41643.7 s  ClockTime = 80033 s  Iterations: 752/760  Projected time to finish: 7.38363 min
Time = 0.247697


SOLVING PARTICLE DOMAIN

PARTICLE INFLOW BC 

Virtual number density of inserted particles: 1(1.04186e+06)
Particle Boundary Temp: 0.00339031
Particle Boundary Velocity: (-0.0144877 -0.00825426 -0.02486)
    Particles inserted              = 135
    Collisions                      = 14009845
    Acceptance rate                 = 0.462834

Cloud name: dsmc
    Number of dsmc particles        = 392688
    Number of molecules             = 7.85376e+21
    Mass in system                  = 0.0003652
    Average linear momentum         = (2.90851e-26 1.73634e-29 1.25794e-29)
   |Average linear momentum|        = 2.90851e-26
    Average linear kinetic energy   = 7.29621e-26
    Average internal energy         = 4.07383e-26
    Average total energy            = 1.137e-25

SOLVING FLUID DOMAIN
deltaT = 0.000328947
Mean and max Courant Numbers = 0.193578 0.199083
diagonal:  Solving for rho, Initial residual = 0, Final residual = 0, No Iterations 0
diagonal:  Solving for rhoUx, Initial residual = 0, Final residual = 0, No Iterations 0
diagonal:  Solving for rhoE, Initial residual = 0, Final residual = 0, No Iterations 0

FLUID PRESSURE BC
Particle pressure: 0.000870279
Fluid pressure: 0.00107371

ExecutionTime = 41679.1 s  ClockTime = 80069 s  Iterations: 753/760  Projected time to finish: 6.45759 min
Time = 0.248026


SOLVING PARTICLE DOMAIN

PARTICLE INFLOW BC 

Virtual number density of inserted particles: 1(1.0432e+06)
Particle Boundary Temp: 0.00338178
Particle Boundary Velocity: (-0.00887859 -0.00890242 -0.0226097)
    Particles inserted              = 135
    Collisions                      = 13997803
    Acceptance rate                 = 0.462757

Cloud name: dsmc
    Number of dsmc particles        = 392694
    Number of molecules             = 7.85388e+21
    Mass in system                  = 0.000365205
    Average linear momentum         = (2.91209e-26 1.76962e-29 1.66992e-29)
   |Average linear momentum|        = 2.91209e-26
    Average linear kinetic energy   = 7.29438e-26
    Average internal energy         = 4.07525e-26
    Average total energy            = 1.13696e-25

SOLVING FLUID DOMAIN
deltaT = 0.000328947
Mean and max Courant Numbers = 0.193584 0.198792
diagonal:  Solving for rho, Initial residual = 0, Final residual = 0, No Iterations 0
diagonal:  Solving for rhoUx, Initial residual = 0, Final residual = 0, No Iterations 0
diagonal:  Solving for rhoE, Initial residual = 0, Final residual = 0, No Iterations 0

FLUID PRESSURE BC
Particle pressure: 0.00086886
Fluid pressure: 0.00107734

ExecutionTime = 41714.4 s  ClockTime = 80104 s  Iterations: 754/760  Projected time to finish: 5.53242 min
Time = 0.248355


SOLVING PARTICLE DOMAIN

PARTICLE INFLOW BC 

Virtual number density of inserted particles: 1(1.04767e+06)
Particle Boundary Temp: 0.00336637
Particle Boundary Velocity: (-0.00981146 -0.00996634 -0.0130798)
    Particles inserted              = 136
    Collisions                      = 13988642
    Acceptance rate                 = 0.462699

Cloud name: dsmc
    Number of dsmc particles        = 392702
    Number of molecules             = 7.85404e+21
    Mass in system                  = 0.000365213
    Average linear momentum         = (2.91575e-26 1.63946e-29 1.89004e-29)
   |Average linear momentum|        = 2.91575e-26
    Average linear kinetic energy   = 7.29382e-26
    Average internal energy         = 4.07609e-26
    Average total energy            = 1.13699e-25

SOLVING FLUID DOMAIN
deltaT = 0.000328947
Mean and max Courant Numbers = 0.193599 0.198098
diagonal:  Solving for rho, Initial residual = 0, Final residual = 0, No Iterations 0
diagonal:  Solving for rhoUx, Initial residual = 0, Final residual = 0, No Iterations 0
diagonal:  Solving for rhoE, Initial residual = 0, Final residual = 0, No Iterations 0

FLUID PRESSURE BC
Particle pressure: 0.000886091
Fluid pressure: 0.00108205

ExecutionTime = 41749.7 s  ClockTime = 80139 s  Iterations: 755/760  Projected time to finish: 4.60814 min
Time = 0.248684


SOLVING PARTICLE DOMAIN

PARTICLE INFLOW BC 

Virtual number density of inserted particles: 1(1.05345e+06)
Particle Boundary Temp: 0.00336243
Particle Boundary Velocity: (-0.00352853 -0.00757658 -0.00204147)
    Particles inserted              = 137
    Collisions                      = 13980523
    Acceptance rate                 = 0.46274

Cloud name: dsmc
    Number of dsmc particles        = 392695
    Number of molecules             = 7.8539e+21
    Mass in system                  = 0.000365206
    Average linear momentum         = (2.91988e-26 1.64717e-29 1.8719e-29)
   |Average linear momentum|        = 2.91988e-26
    Average linear kinetic energy   = 7.29885e-26
    Average internal energy         = 4.07106e-26
    Average total energy            = 1.13699e-25

SOLVING FLUID DOMAIN
deltaT = 0.000328947
Mean and max Courant Numbers = 0.1936 0.19766
diagonal:  Solving for rho, Initial residual = 0, Final residual = 0, No Iterations 0
diagonal:  Solving for rhoUx, Initial residual = 0, Final residual = 0, No Iterations 0
diagonal:  Solving for rhoE, Initial residual = 0, Final residual = 0, No Iterations 0

FLUID PRESSURE BC
Particle pressure: 0.000895683
Fluid pressure: 0.00108453

ExecutionTime = 41785 s  ClockTime = 80175 s  Iterations: 756/760  Projected time to finish: 3.68475 min
Time = 0.249013


SOLVING PARTICLE DOMAIN

PARTICLE INFLOW BC 

Virtual number density of inserted particles: 1(1.05647e+06)
Particle Boundary Temp: 0.00336976
Particle Boundary Velocity: (0.00509725 -0.00877136 0.00363464)
    Particles inserted              = 140
    Collisions                      = 13970248
    Acceptance rate                 = 0.462802

Cloud name: dsmc
    Number of dsmc particles        = 392711
    Number of molecules             = 7.85422e+21
    Mass in system                  = 0.000365221
    Average linear momentum         = (2.92341e-26 1.85601e-29 1.91469e-29)
   |Average linear momentum|        = 2.92341e-26
    Average linear kinetic energy   = 7.29435e-26
    Average internal energy         = 4.07557e-26
    Average total energy            = 1.13699e-25

SOLVING FLUID DOMAIN
deltaT = 0.000328947
Mean and max Courant Numbers = 0.193591 0.198495
diagonal:  Solving for rho, Initial residual = 0, Final residual = 0, No Iterations 0
diagonal:  Solving for rhoUx, Initial residual = 0, Final residual = 0, No Iterations 0
diagonal:  Solving for rhoE, Initial residual = 0, Final residual = 0, No Iterations 0

FLUID PRESSURE BC
Particle pressure: 0.000930309
Fluid pressure: 0.00108387

ExecutionTime = 41820.2 s  ClockTime = 80210 s  Iterations: 757/760  Projected time to finish: 2.76224 min
Time = 0.249342


SOLVING PARTICLE DOMAIN

PARTICLE INFLOW BC 

Virtual number density of inserted particles: 1(1.06422e+06)
Particle Boundary Temp: 0.00337846
Particle Boundary Velocity: (0.00588203 -0.00869836 0.00805077)
    Particles inserted              = 141
    Collisions                      = 13956479
    Acceptance rate                 = 0.46267

Cloud name: dsmc
    Number of dsmc particles        = 392720
    Number of molecules             = 7.8544e+21
    Mass in system                  = 0.00036523
    Average linear momentum         = (2.92709e-26 2.0853e-29 1.89172e-29)
   |Average linear momentum|        = 2.92709e-26
    Average linear kinetic energy   = 7.29545e-26
    Average internal energy         = 4.0744e-26
    Average total energy            = 1.13698e-25

SOLVING FLUID DOMAIN
deltaT = 0.000328947
Mean and max Courant Numbers = 0.193575 0.198999
diagonal:  Solving for rho, Initial residual = 0, Final residual = 0, No Iterations 0
diagonal:  Solving for rhoUx, Initial residual = 0, Final residual = 0, No Iterations 0
diagonal:  Solving for rhoE, Initial residual = 0, Final residual = 0, No Iterations 0

FLUID PRESSURE BC
Particle pressure: 0.000919793
Fluid pressure: 0.00108369

ExecutionTime = 41855.4 s  ClockTime = 80245 s  Iterations: 758/760  Projected time to finish: 1.84061 min
Time = 0.249671


SOLVING PARTICLE DOMAIN

PARTICLE INFLOW BC 

Virtual number density of inserted particles: 1(1.06627e+06)
Particle Boundary Temp: 0.00338459
Particle Boundary Velocity: (0.0085227 -0.0057337 0.0133586)
    Particles inserted              = 142
    Collisions                      = 13946042
    Acceptance rate                 = 0.462572

Cloud name: dsmc
    Number of dsmc particles        = 392725
    Number of molecules             = 7.8545e+21
    Mass in system                  = 0.000365234
    Average linear momentum         = (2.93086e-26 1.69438e-29 1.86042e-29)
   |Average linear momentum|        = 2.93087e-26
    Average linear kinetic energy   = 7.30176e-26
    Average internal energy         = 4.06876e-26
    Average total energy            = 1.13705e-25

SOLVING FLUID DOMAIN
deltaT = 0.000328947
Mean and max Courant Numbers = 0.193558 0.199096
diagonal:  Solving for rho, Initial residual = 0, Final residual = 0, No Iterations 0
diagonal:  Solving for rhoUx, Initial residual = 0, Final residual = 0, No Iterations 0
diagonal:  Solving for rhoE, Initial residual = 0, Final residual = 0, No Iterations 0

FLUID PRESSURE BC
Particle pressure: 0.000957055
Fluid pressure: 0.00108227

ExecutionTime = 41890.5 s  ClockTime = 80280 s  Iterations: 759/760  Projected time to finish: 0.919861 min
Time = 0.25


SOLVING PARTICLE DOMAIN

PARTICLE INFLOW BC 

Virtual number density of inserted particles: 1(1.06798e+06)
Particle Boundary Temp: 0.00341107
Particle Boundary Velocity: (0.0147462 -0.00563437 0.0149037)
    Particles inserted              = 144
    Collisions                      = 13939752
    Acceptance rate                 = 0.462631

Cloud name: dsmc
    Number of dsmc particles        = 392743
    Number of molecules             = 7.85486e+21
    Mass in system                  = 0.000365251
    Average linear momentum         = (2.93432e-26 1.69421e-29 1.59839e-29)
   |Average linear momentum|        = 2.93432e-26
    Average linear kinetic energy   = 7.29953e-26
    Average internal energy         = 4.07152e-26
    Average total energy            = 1.1371e-25

SOLVING FLUID DOMAIN
deltaT = 0.000328947
Mean and max Courant Numbers = 0.193592 0.198962
diagonal:  Solving for rho, Initial residual = 0, Final residual = 0, No Iterations 0
diagonal:  Solving for rhoUx, Initial residual = 0, Final residual = 0, No Iterations 0
diagonal:  Solving for rhoE, Initial residual = 0, Final residual = 0, No Iterations 0

FLUID PRESSURE BC
Particle pressure: 0.000946332
Fluid pressure: 0.00107809

ExecutionTime = 41927.7 s  ClockTime = 80317 s  Iterations: 760/760  Projected time to finish: 0 min
