/*---------------------------------------------------------------------------*\
  =========                 |
  \\      /  F ield         | OpenFOAM: The Open Source CFD Toolbox
   \\    /   O peration     | Website:  https://openfoam.org
    \\  /    A nd           | Version:  7
     \\/     M anipulation  |
\*---------------------------------------------------------------------------*/
Build  : 7-1ff648926f77
Exec   : Hybrid
Date   : Jun 24 2020
Time   : 02:32:45
Host   : "DESKTOP-KF81SG4"
PID    : 10907
I/O    : uncollated
Case   : /home/anthonygay1812/OpenFOAM/Working/finalShockTube
nProcs : 1
sigFpe : Enabling floating point exception trapping (FOAM_SIGFPE).
fileModificationChecking : Monitoring run-time modified files using timeStampMaster (fileModificationSkew 10)
allowSystemOperations : Allowing user-supplied system call operations

// * * * * * * * * * * * * * * * * * * * * * * * * * * * * * * * * * * * * * //
Create time

Create mesh for time = 0

Create mesh for time = 0

Meshes created
Reading thermophysical properties

Selecting thermodynamics package 
{
    type            hePsiThermo;
    mixture         pureMixture;
    transport       const;
    thermo          hConst;
    equationOfState perfectGas;
    specie          specie;
    energy          sensibleInternalEnergy;
}

Using dynamicCode for patch fluidBound on field p at line 19 in "/home/anthonygay1812/OpenFOAM/Working/finalShockTube/system/fluid/codeDict.HPCFluidP"
Creating new library in "dynamicCode/HPCFluidP/platforms/linux64GccDPInt32Opt/lib/libHPCFluidP_a6d23aedfcb9d8349035819c70b7760d0e9994dd.so"
Invoking "wmake -s libso /home/anthonygay1812/OpenFOAM/Working/finalShockTube/dynamicCode/HPCFluidP"
wmake libso /home/anthonygay1812/OpenFOAM/Working/finalShockTube/dynamicCode/HPCFluidP
    ln: ./lnInclude
    wmkdep: fixedValueFvPatchFieldTemplate.C
    Ctoo: fixedValueFvPatchFieldTemplate.C
    ld: /home/anthonygay1812/OpenFOAM/Working/finalShockTube/dynamicCode/HPCFluidP/../platforms/linux64GccDPInt32Opt/lib/libHPCFluidP_a6d23aedfcb9d8349035819c70b7760d0e9994dd.so
Using dynamicCode for patch fluidBound on field T at line 113 in "/home/anthonygay1812/OpenFOAM/Working/finalShockTube/system/fluid/codeDict.HPCFluidT"
Creating new library in "dynamicCode/HPCFluidT/platforms/linux64GccDPInt32Opt/lib/libHPCFluidT_2dc3145a9cfa6beb53a9a17d24491db4278714fa.so"
Invoking "wmake -s libso /home/anthonygay1812/OpenFOAM/Working/finalShockTube/dynamicCode/HPCFluidT"
wmake libso /home/anthonygay1812/OpenFOAM/Working/finalShockTube/dynamicCode/HPCFluidT
    ln: ./lnInclude
    wmkdep: fixedValueFvPatchFieldTemplate.C
    Ctoo: fixedValueFvPatchFieldTemplate.C
    ld: /home/anthonygay1812/OpenFOAM/Working/finalShockTube/dynamicCode/HPCFluidT/../platforms/linux64GccDPInt32Opt/lib/libHPCFluidT_2dc3145a9cfa6beb53a9a17d24491db4278714fa.so
Reading field U

Using dynamicCode for patch fluidBound on field U at line 187 in "/home/anthonygay1812/OpenFOAM/Working/finalShockTube/system/fluid/codeDict.HPCFluidU"
Creating new library in "dynamicCode/HPCFluidU/platforms/linux64GccDPInt32Opt/lib/libHPCFluidU_9b8b4e26a42272db7722b37117fea651ec7f91c3.so"
Invoking "wmake -s libso /home/anthonygay1812/OpenFOAM/Working/finalShockTube/dynamicCode/HPCFluidU"
wmake libso /home/anthonygay1812/OpenFOAM/Working/finalShockTube/dynamicCode/HPCFluidU
    ln: ./lnInclude
    wmkdep: fixedValueFvPatchFieldTemplate.C
    Ctoo: fixedValueFvPatchFieldTemplate.C
    ld: /home/anthonygay1812/OpenFOAM/Working/finalShockTube/dynamicCode/HPCFluidU/../platforms/linux64GccDPInt32Opt/lib/libHPCFluidU_9b8b4e26a42272db7722b37117fea651ec7f91c3.so
Creating turbulence model

Selecting turbulence model type laminar
Selecting laminar stress model Stokes
fluxScheme: Kurganov
Initialising dsmc for Time = 0


Constructing constant properties for
    N2

Initialising particles

Knudsen:17597.9
Particle regime for cells 0 to 300

Knudsen:60659.6
Particle regime for cells 300 to 600

Total number of molecules added: 87951


ClockTime = 38 s


Constructing dsmcCloud 
Using dynamicCode for patch DSMCBound on field boundaryT at line 19 in "/home/anthonygay1812/OpenFOAM/Working/finalShockTube/system/particle/codeDict.HPCParticleT"
Creating new library in "dynamicCode/HPCParticleT/platforms/linux64GccDPInt32Opt/lib/libHPCParticleT_20b915806a40ca86fbcd1ff056a9a8ac25b3fd27.so"
Invoking "wmake -s libso /home/anthonygay1812/OpenFOAM/Working/finalShockTube/dynamicCode/HPCParticleT"
wmake libso /home/anthonygay1812/OpenFOAM/Working/finalShockTube/dynamicCode/HPCParticleT
    ln: ./lnInclude
    wmkdep: fixedValueFvPatchFieldTemplate.C
    Ctoo: fixedValueFvPatchFieldTemplate.C
    ld: /home/anthonygay1812/OpenFOAM/Working/finalShockTube/dynamicCode/HPCParticleT/../platforms/linux64GccDPInt32Opt/lib/libHPCParticleT_20b915806a40ca86fbcd1ff056a9a8ac25b3fd27.so
Using dynamicCode for patch DSMCBound on field boundaryU at line 33 in "/home/anthonygay1812/OpenFOAM/Working/finalShockTube/system/particle/codeDict.HPCParticleU"
Creating new library in "dynamicCode/HPCParticleU/platforms/linux64GccDPInt32Opt/lib/libHPCParticleU_91cdc58e2f6455ff40a78dfb25acd5bf700bc321.so"
Invoking "wmake -s libso /home/anthonygay1812/OpenFOAM/Working/finalShockTube/dynamicCode/HPCParticleU"
wmake libso /home/anthonygay1812/OpenFOAM/Working/finalShockTube/dynamicCode/HPCParticleU
    ln: ./lnInclude
    wmkdep: fixedValueFvPatchFieldTemplate.C
    Ctoo: fixedValueFvPatchFieldTemplate.C
    ld: /home/anthonygay1812/OpenFOAM/Working/finalShockTube/dynamicCode/HPCParticleU/../platforms/linux64GccDPInt32Opt/lib/libHPCParticleU_91cdc58e2f6455ff40a78dfb25acd5bf700bc321.so
Selecting BinaryCollisionModel LarsenBorgnakkeVariableHardSphere
Selecting WallInteractionModel MaxwellianThermal
Selecting InflowBoundaryModel oneDirectionalHybridDSMC

Constructing constant properties for
    N2
fieldAverage fieldAverage1:
    Starting averaging at time 0

Time = 6e-06


Virtual Number Density of inserted particles: 22720.1
Particle Boundary Temp: 900
Particle Boundary Velocity: (0 0 0)    Particles inserted              = 28
    Collisions                      = 746425
    Acceptance rate                 = 0.963641

Cloud name: dsmc
    Number of dsmc particles        = 87945
    Number of molecules             = 3.5178e+22
    Mass in system                  = 0.00163578
    Average linear momentum         = (1.67746e-25 2.7738e-27 -6.69576e-26)
   |Average linear momentum|        = 1.80637e-25
    Average linear kinetic energy   = 1.65857e-20
    Average internal energy         = 9.80592e-21
    Average total energy            = 2.63916e-20
deltaT = 7.08e-06
Mean and max Courant Numbers = 0.212545 0.212545
diagonal:  Solving for rho, Initial residual = 0, Final residual = 0, No Iterations 0
diagonal:  Solving for rhoUx, Initial residual = 0, Final residual = 0, No Iterations 0

FLUID VEL BC
Particle velocity: (64.1649 43.9077 -10.0222)
Fluid velocity : (0 0 0)
FLUID VEL BC
Particle velocity: (64.1649 43.9077 -10.0222)
Fluid velocity : (0 0 0)diagonal:  Solving for rhoE, Initial residual = 0, Final residual = 0, No Iterations 0

FLUID TEMP BC
Particle overallT: 894.674
Particle TRans T: 927.008
Fluid Temp: 900

FLUID TEMP BC
Particle overallT: 894.674
Particle TRans T: 927.008
Fluid Temp: 900

FLUID PRESSURE BC
Particle pressure formula 1: 115.189
Particle pressure formula 2: 115.189
Particle pressure from rhoM: 111.128
Particle pressure from rhoM T_trans: 115.144
Particle overallT: 894.674
Particle TRans T: 927.008

FLUID PRESSURE BC
Particle pressure formula 1: 115.189
Particle pressure formula 2: 115.189
Particle pressure from rhoM: 111.128
Particle pressure from rhoM T_trans: 115.144
Particle overallT: 894.674
Particle TRans T: 927.008

ExecutionTime = 2.42 s  ClockTime = 60 s  Iterations: 0.847458/203.39  Projected time to finish: 9.63967 min
    Reading/initialising field rhoNMean
    Reading/initialising field rhoMMean
    Reading/initialising field dsmcRhoNMean
    Reading/initialising field momentumMean
    Reading/initialising field linearKEMean
    Reading/initialising field internalEMean
    Reading/initialising field iDofMean
    Reading/initialising field qMean
    Reading/initialising field fDMean
fieldAverage fieldAverage1 write:
    Calculating averages

Time = 1.308e-05


Virtual Number Density of inserted particles: 22676.8
Particle Boundary Temp: 905.402
Particle Boundary Velocity: (12.833 8.78154 -2.00444)    Particles inserted              = 34
    Collisions                      = 1113486
    Acceptance rate                 = 0.58079

Cloud name: dsmc
    Number of dsmc particles        = 87954
    Number of molecules             = 3.51816e+22
    Mass in system                  = 0.00163594
    Average linear momentum         = (1.89174e-25 5.30268e-27 -6.50995e-26)
   |Average linear momentum|        = 2.00132e-25
    Average linear kinetic energy   = 1.58691e-20
    Average internal energy         = 1.05248e-20
    Average total energy            = 2.63939e-20
deltaT = 6.54566e-06
Mean and max Courant Numbers = 0.196528 0.198902
diagonal:  Solving for rho, Initial residual = 0, Final residual = 0, No Iterations 0
diagonal:  Solving for rhoUx, Initial residual = 0, Final residual = 0, No Iterations 0

FLUID VEL BC
Particle velocity: (39.139 59.5666 24.1981)
Fluid velocity : (-0.829167 0 0)diagonal:  Solving for rhoE, Initial residual = 0, Final residual = 0, No Iterations 0

FLUID TEMP BC
Particle overallT: 934.685
Particle TRans T: 850.34
Fluid Temp: 900

FLUID PRESSURE BC
Particle pressure formula 1: 103.784
Particle pressure formula 2: 103.784
Particle pressure from rhoM: 114.034
Particle pressure from rhoM T_trans: 103.744
Particle overallT: 934.685
Particle TRans T: 850.34

ExecutionTime = 3.73 s  ClockTime = 61 s  Iterations: 1.99827/219.993  Projected time to finish: 6.78187 min
fieldAverage fieldAverage1 write:
    Calculating averages

Time = 1.96257e-05


Virtual Number Density of inserted particles: 22550.8
Particle Boundary Temp: 890.068
Particle Boundary Velocity: (7.66196 11.9133 4.83963)    Particles inserted              = 31
    Collisions                      = 1028106
    Acceptance rate                 = 0.56208

Cloud name: dsmc
    Number of dsmc particles        = 87967
    Number of molecules             = 3.51868e+22
    Mass in system                  = 0.00163619
    Average linear momentum         = (2.04873e-25 2.74674e-27 -6.19775e-26)
   |Average linear momentum|        = 2.1406e-25
    Average linear kinetic energy   = 1.57896e-20
    Average internal energy         = 1.06062e-20
    Average total energy            = 2.63958e-20
deltaT = 6.54566e-06
Mean and max Courant Numbers = 0.196515 0.197393
diagonal:  Solving for rho, Initial residual = 0, Final residual = 0, No Iterations 0
diagonal:  Solving for rhoUx, Initial residual = 0, Final residual = 0, No Iterations 0

FLUID VEL BC
Particle velocity: (-68.7592 59.1232 64.2403)
Fluid velocity : (1.69268 0 0)diagonal:  Solving for rhoE, Initial residual = 0, Final residual = 0, No Iterations 0

FLUID TEMP BC
Particle overallT: 937.197
Particle TRans T: 965.33
Fluid Temp: 897.272

FLUID PRESSURE BC
Particle pressure formula 1: 117.285
Particle pressure formula 2: 117.285
Particle pressure from rhoM: 113.823
Particle pressure from rhoM T_trans: 117.24
Particle overallT: 937.197
Particle TRans T: 965.33

ExecutionTime = 5.03 s  ClockTime = 62 s  Iterations: 2.99827/219.993  Projected time to finish: 6.0673 min
fieldAverage fieldAverage1 write:
    Calculating averages

Time = 2.61713e-05


Virtual Number Density of inserted particles: 22395.8
Particle Boundary Temp: 910.884
Particle Boundary Velocity: (-13.9108 11.8246 12.8481)    Particles inserted              = 30
    Collisions                      = 1029064
    Acceptance rate                 = 0.556247

Cloud name: dsmc
    Number of dsmc particles        = 87970
    Number of molecules             = 3.5188e+22
    Mass in system                  = 0.00163624
    Average linear momentum         = (2.22612e-25 1.16691e-27 -6.50711e-26)
   |Average linear momentum|        = 2.3193e-25
    Average linear kinetic energy   = 1.58846e-20
    Average internal energy         = 1.05077e-20
    Average total energy            = 2.63923e-20
deltaT = 6.54566e-06
Mean and max Courant Numbers = 0.196537 0.199553
diagonal:  Solving for rho, Initial residual = 0, Final residual = 0, No Iterations 0
diagonal:  Solving for rhoUx, Initial residual = 0, Final residual = 0, No Iterations 0

FLUID VEL BC
Particle velocity: (-32.587 44.4475 4.26615)
Fluid velocity : (0.424426 0 0)diagonal:  Solving for rhoE, Initial residual = 0, Final residual = 0, No Iterations 0

FLUID TEMP BC
Particle overallT: 924.608
Particle TRans T: 939.535
Fluid Temp: 895.878

FLUID PRESSURE BC
Particle pressure formula 1: 115.189
Particle pressure formula 2: 115.189
Particle pressure from rhoM: 113.315
Particle pressure from rhoM T_trans: 115.144
Particle overallT: 924.608
Particle TRans T: 939.535

ExecutionTime = 6.36 s  ClockTime = 63 s  Iterations: 3.99827/219.993  Projected time to finish: 5.72634 min
fieldAverage fieldAverage1 write:
    Calculating averages

Time = 3.2717e-05


Virtual Number Density of inserted particles: 22468.9
Particle Boundary Temp: 904.609
Particle Boundary Velocity: (-5.41691 8.88951 0.853229)    Particles inserted              = 29
    Collisions                      = 1027355
    Acceptance rate                 = 0.550365

Cloud name: dsmc
    Number of dsmc particles        = 87958
    Number of molecules             = 3.51832e+22
    Mass in system                  = 0.00163602
    Average linear momentum         = (2.47075e-25 3.58221e-28 -6.50625e-26)
   |Average linear momentum|        = 2.55498e-25
    Average linear kinetic energy   = 1.5838e-20
    Average internal energy         = 1.0554e-20
    Average total energy            = 2.6392e-20
deltaT = 6.54566e-06
Mean and max Courant Numbers = 0.196526 0.197996
diagonal:  Solving for rho, Initial residual = 0, Final residual = 0, No Iterations 0
diagonal:  Solving for rhoUx, Initial residual = 0, Final residual = 0, No Iterations 0

FLUID VEL BC
Particle velocity: (-31.0448 28.2863 27.2811)
Fluid velocity : (1.05812 0 0)diagonal:  Solving for rhoE, Initial residual = 0, Final residual = 0, No Iterations 0

FLUID TEMP BC
Particle overallT: 941.571
Particle TRans T: 1000.69
Fluid Temp: 899.947

FLUID PRESSURE BC
Particle pressure formula 1: 114.397
Particle pressure formula 2: 114.397
Particle pressure from rhoM: 107.597
Particle pressure from rhoM T_trans: 114.353
Particle overallT: 941.571
Particle TRans T: 1000.69

ExecutionTime = 7.7 s  ClockTime = 65 s  Iterations: 4.99827/219.993  Projected time to finish: 5.52011 min
fieldAverage fieldAverage1 write:
    Calculating averages

Time = 3.92626e-05


Virtual Number Density of inserted particles: 22295.3
Particle Boundary Temp: 920.095
Particle Boundary Velocity: (-5.74268 5.65726 5.45622)    Particles inserted              = 31
    Collisions                      = 1027359
    Acceptance rate                 = 0.547079

Cloud name: dsmc
    Number of dsmc particles        = 87961
    Number of molecules             = 3.51844e+22
    Mass in system                  = 0.00163607
    Average linear momentum         = (2.63532e-25 -3.48189e-27 -6.45299e-26)
   |Average linear momentum|        = 2.7134e-25
    Average linear kinetic energy   = 1.58332e-20
    Average internal energy         = 1.05623e-20
    Average total energy            = 2.63955e-20
deltaT = 6.54566e-06
Mean and max Courant Numbers = 0.196535 0.198822
diagonal:  Solving for rho, Initial residual = 0, Final residual = 0, No Iterations 0
diagonal:  Solving for rhoUx, Initial residual = 0, Final residual = 0, No Iterations 0

FLUID VEL BC
Particle velocity: (-14.8274 8.11667 49.3029)
Fluid velocity : (0.512231 0 0)diagonal:  Solving for rhoE, Initial residual = 0, Final residual = 0, No Iterations 0

FLUID TEMP BC
Particle overallT: 947.104
Particle TRans T: 898.175
Fluid Temp: 901.323

FLUID PRESSURE BC
Particle pressure formula 1: 100.693
Particle pressure formula 2: 100.693
Particle pressure from rhoM: 106.138
Particle pressure from rhoM T_trans: 100.655
Particle overallT: 947.104
Particle TRans T: 898.175

ExecutionTime = 9.03 s  ClockTime = 66 s  Iterations: 5.99827/219.993  Projected time to finish: 5.36925 min
fieldAverage fieldAverage1 write:
    Calculating averages

Time = 4.58083e-05


Virtual Number Density of inserted particles: 22323.7
Particle Boundary Temp: 900.694
Particle Boundary Velocity: (-2.22817 1.62333 9.86058)    Particles inserted              = 30
    Collisions                      = 1028511
    Acceptance rate                 = 0.544582

Cloud name: dsmc
    Number of dsmc particles        = 87965
    Number of molecules             = 3.5186e+22
    Mass in system                  = 0.00163615
    Average linear momentum         = (2.78281e-25 -4.37545e-27 -6.85454e-26)
   |Average linear momentum|        = 2.86632e-25
    Average linear kinetic energy   = 1.58196e-20
    Average internal energy         = 1.05741e-20
    Average total energy            = 2.63938e-20
deltaT = 6.54566e-06
Mean and max Courant Numbers = 0.19652 0.197177
diagonal:  Solving for rho, Initial residual = 0, Final residual = 0, No Iterations 0
diagonal:  Solving for rhoUx, Initial residual = 0, Final residual = 0, No Iterations 0

FLUID VEL BC
Particle velocity: (-53.3018 -31.2919 -21.8319)
Fluid velocity : (4.11746 0 0)diagonal:  Solving for rhoE, Initial residual = 0, Final residual = 0, No Iterations 0

FLUID TEMP BC
Particle overallT: 884.351
Particle TRans T: 898.7
Fluid Temp: 902.682

FLUID PRESSURE BC
Particle pressure formula 1: 100.752
Particle pressure formula 2: 100.752
Particle pressure from rhoM: 99.1054
Particle pressure from rhoM T_trans: 100.714
Particle overallT: 884.351
Particle TRans T: 898.7

ExecutionTime = 10.4 s  ClockTime = 68 s  Iterations: 6.99827/219.993  Projected time to finish: 5.27546 min
fieldAverage fieldAverage1 write:
    Calculating averages

Time = 5.2354e-05


Virtual Number Density of inserted particles: 22366.6
Particle Boundary Temp: 901.886
Particle Boundary Velocity: (-9.52954 -6.25838 -4.36638)    Particles inserted              = 29
    Collisions                      = 1027327
    Acceptance rate                 = 0.541548

Cloud name: dsmc
    Number of dsmc particles        = 87964
    Number of molecules             = 3.51856e+22
    Mass in system                  = 0.00163613
    Average linear momentum         = (2.95063e-25 -4.00258e-27 -7.26229e-26)
   |Average linear momentum|        = 3.03895e-25
    Average linear kinetic energy   = 1.58472e-20
    Average internal energy         = 1.05448e-20
    Average total energy            = 2.6392e-20
deltaT = 6.54566e-06
Mean and max Courant Numbers = 0.196539 0.198567
diagonal:  Solving for rho, Initial residual = 0, Final residual = 0, No Iterations 0
diagonal:  Solving for rhoUx, Initial residual = 0, Final residual = 0, No Iterations 0

FLUID VEL BC
Particle velocity: (-44.8149 -17.5097 -41.2626)
Fluid velocity : (6.61564 0 0)diagonal:  Solving for rhoE, Initial residual = 0, Final residual = 0, No Iterations 0

FLUID TEMP BC
Particle overallT: 886
Particle TRans T: 827.639
Fluid Temp: 902.614

FLUID PRESSURE BC
Particle pressure formula 1: 91.4144
Particle pressure formula 2: 91.4144
Particle pressure from rhoM: 97.823
Particle pressure from rhoM T_trans: 91.3793
Particle overallT: 886
Particle TRans T: 827.639

ExecutionTime = 11.75 s  ClockTime = 69 s  Iterations: 7.99827/219.993  Projected time to finish: 5.19058 min
fieldAverage fieldAverage1 write:
    Calculating averages

Time = 5.88996e-05


Virtual Number Density of inserted particles: 22388.3
Particle Boundary Temp: 887.619
Particle Boundary Velocity: (-5.16938 -3.50194 -8.25252)    Particles inserted              = 30
    Collisions                      = 1027143
    Acceptance rate                 = 0.540294

Cloud name: dsmc
    Number of dsmc particles        = 87949
    Number of molecules             = 3.51796e+22
    Mass in system                  = 0.00163585
    Average linear momentum         = (3.20934e-25 -3.73373e-27 -7.03786e-26)
   |Average linear momentum|        = 3.28581e-25
    Average linear kinetic energy   = 1.58388e-20
    Average internal energy         = 1.05529e-20
    Average total energy            = 2.63916e-20
deltaT = 6.54566e-06
Mean and max Courant Numbers = 0.196528 0.197351
diagonal:  Solving for rho, Initial residual = 0, Final residual = 0, No Iterations 0
diagonal:  Solving for rhoUx, Initial residual = 0, Final residual = 0, No Iterations 0

FLUID VEL BC
Particle velocity: (-12.8851 -12.7647 14.2391)
Fluid velocity : (11.7818 0 0)diagonal:  Solving for rhoE, Initial residual = 0, Final residual = 0, No Iterations 0

FLUID TEMP BC
Particle overallT: 897.89
Particle TRans T: 904.035
Fluid Temp: 904.491

FLUID PRESSURE BC
Particle pressure formula 1: 89.8672
Particle pressure formula 2: 89.8672
Particle pressure from rhoM: 89.2221
Particle pressure from rhoM T_trans: 89.8327
Particle overallT: 897.89
Particle TRans T: 904.035

ExecutionTime = 13.11 s  ClockTime = 70 s  Iterations: 8.99827/219.993  Projected time to finish: 5.12347 min
fieldAverage fieldAverage1 write:
    Calculating averages

Time = 6.54453e-05


Virtual Number Density of inserted particles: 22042.9
Particle Boundary Temp: 904.4
Particle Boundary Velocity: (3.74874 -2.55294 2.84782)    Particles inserted              = 30
    Collisions                      = 1026487
    Acceptance rate                 = 0.538148

Cloud name: dsmc
    Number of dsmc particles        = 87959
    Number of molecules             = 3.51836e+22
    Mass in system                  = 0.00163604
    Average linear momentum         = (3.36828e-25 -5.31552e-27 -6.8826e-26)
   |Average linear momentum|        = 3.43829e-25
    Average linear kinetic energy   = 1.58702e-20
    Average internal energy         = 1.05211e-20
    Average total energy            = 2.63912e-20
deltaT = 6.54566e-06
Mean and max Courant Numbers = 0.196544 0.198404
diagonal:  Solving for rho, Initial residual = 0, Final residual = 0, No Iterations 0
diagonal:  Solving for rhoUx, Initial residual = 0, Final residual = 0, No Iterations 0

FLUID VEL BC
Particle velocity: (-39.6542 -0.156065 34.2797)
Fluid velocity : (15.7385 0 0)diagonal:  Solving for rhoE, Initial residual = 0, Final residual = 0, No Iterations 0

FLUID TEMP BC
Particle overallT: 872.093
Particle TRans T: 926.715
Fluid Temp: 905.229

FLUID PRESSURE BC
Particle pressure formula 1: 96.2161
Particle pressure formula 2: 96.2161
Particle pressure from rhoM: 90.5102
Particle pressure from rhoM T_trans: 96.1792
Particle overallT: 872.093
Particle TRans T: 926.715

ExecutionTime = 14.48 s  ClockTime = 72 s  Iterations: 9.99827/219.993  Projected time to finish: 5.06875 min
fieldAverage fieldAverage1 write:
    Calculating averages

Time = 7.19909e-05


Virtual Number Density of inserted particles: 22210.5
Particle Boundary Temp: 909.527
Particle Boundary Velocity: (2.28597 -0.031213 6.85593)    Particles inserted              = 30
    Collisions                      = 1027413
    Acceptance rate                 = 0.537402

Cloud name: dsmc
    Number of dsmc particles        = 87966
    Number of molecules             = 3.51864e+22
    Mass in system                  = 0.00163617
    Average linear momentum         = (3.54955e-25 -3.78371e-27 -7.15829e-26)
   |Average linear momentum|        = 3.62121e-25
    Average linear kinetic energy   = 1.58695e-20
    Average internal energy         = 1.05251e-20
    Average total energy            = 2.63946e-20
deltaT = 6.54566e-06
Mean and max Courant Numbers = 0.196548 0.198685
diagonal:  Solving for rho, Initial residual = 0, Final residual = 0, No Iterations 0
diagonal:  Solving for rhoUx, Initial residual = 0, Final residual = 0, No Iterations 0

FLUID VEL BC
Particle velocity: (-54.818 7.97756 -4.27074)
Fluid velocity : (16.0957 0 0)diagonal:  Solving for rhoE, Initial residual = 0, Final residual = 0, No Iterations 0

FLUID TEMP BC
Particle overallT: 914.828
Particle TRans T: 878.168
Fluid Temp: 904.603

FLUID PRESSURE BC
Particle pressure formula 1: 96.9954
Particle pressure formula 2: 96.9954
Particle pressure from rhoM: 101.006
Particle pressure from rhoM T_trans: 96.9582
Particle overallT: 914.828
Particle TRans T: 878.168

ExecutionTime = 15.92 s  ClockTime = 73 s  Iterations: 10.9983/219.993  Projected time to finish: 5.042 min
fieldAverage fieldAverage1 write:
    Calculating averages

Time = 7.85366e-05


Virtual Number Density of inserted particles: 22466
Particle Boundary Temp: 899.316
Particle Boundary Velocity: (1.69866 1.59551 -0.854149)    Particles inserted              = 30
    Collisions                      = 1026753
    Acceptance rate                 = 0.535905

Cloud name: dsmc
    Number of dsmc particles        = 87975
    Number of molecules             = 3.519e+22
    Mass in system                  = 0.00163634
    Average linear momentum         = (3.71426e-25 -3.09544e-28 -6.60937e-26)
   |Average linear momentum|        = 3.77261e-25
    Average linear kinetic energy   = 1.58365e-20
    Average internal energy         = 1.05584e-20
    Average total energy            = 2.63949e-20
deltaT = 6.54566e-06
Mean and max Courant Numbers = 0.196546 0.198327
diagonal:  Solving for rho, Initial residual = 0, Final residual = 0, No Iterations 0
diagonal:  Solving for rhoUx, Initial residual = 0, Final residual = 0, No Iterations 0

FLUID VEL BC
Particle velocity: (-71.9982 22.984 30.09)
Fluid velocity : (16.9152 0 0)diagonal:  Solving for rhoE, Initial residual = 0, Final residual = 0, No Iterations 0

FLUID TEMP BC
Particle overallT: 903.682
Particle TRans T: 880.405
Fluid Temp: 905.306

FLUID PRESSURE BC
Particle pressure formula 1: 103.077
Particle pressure formula 2: 103.077
Particle pressure from rhoM: 105.762
Particle pressure from rhoM T_trans: 103.037
Particle overallT: 903.682
Particle TRans T: 880.405

ExecutionTime = 17.31 s  ClockTime = 75 s  Iterations: 11.9983/219.993  Projected time to finish: 5.00126 min
fieldAverage fieldAverage1 write:
    Calculating averages

Time = 8.50823e-05


Virtual Number Density of inserted particles: 22712.2
Particle Boundary Temp: 900.326
Particle Boundary Velocity: (-1.35917 4.5968 6.018)    Particles inserted              = 32
    Collisions                      = 1026962
    Acceptance rate                 = 0.535049

Cloud name: dsmc
    Number of dsmc particles        = 87976
    Number of molecules             = 3.51904e+22
    Mass in system                  = 0.00163635
    Average linear momentum         = (3.9344e-25 1.58117e-27 -6.43229e-26)
   |Average linear momentum|        = 3.98667e-25
    Average linear kinetic energy   = 1.58368e-20
    Average internal energy         = 1.0559e-20
    Average total energy            = 2.63958e-20
deltaT = 6.54566e-06
Mean and max Courant Numbers = 0.196551 0.198472
diagonal:  Solving for rho, Initial residual = 0, Final residual = 0, No Iterations 0
diagonal:  Solving for rhoUx, Initial residual = 0, Final residual = 0, No Iterations 0

FLUID VEL BC
Particle velocity: (-54.09 36.3443 54.6294)
Fluid velocity : (15.6398 0 0)diagonal:  Solving for rhoE, Initial residual = 0, Final residual = 0, No Iterations 0

FLUID TEMP BC
Particle overallT: 944.047
Particle TRans T: 914.412
Fluid Temp: 905.506

FLUID PRESSURE BC
Particle pressure formula 1: 114.128
Particle pressure formula 2: 114.128
Particle pressure from rhoM: 117.782
Particle pressure from rhoM T_trans: 114.085
Particle overallT: 944.047
Particle TRans T: 914.412

ExecutionTime = 18.7 s  ClockTime = 76 s  Iterations: 12.9983/219.993  Projected time to finish: 4.96323 min
fieldAverage fieldAverage1 write:
    Calculating averages

Time = 9.16279e-05


Virtual Number Density of inserted particles: 23020.8
Particle Boundary Temp: 907.287
Particle Boundary Velocity: (2.45908 7.26887 10.9259)    Particles inserted              = 31
    Collisions                      = 1025247
    Acceptance rate                 = 0.533389

Cloud name: dsmc
    Number of dsmc particles        = 87977
    Number of molecules             = 3.51908e+22
    Mass in system                  = 0.00163637
    Average linear momentum         = (4.1535e-25 2.18696e-27 -6.19335e-26)
   |Average linear momentum|        = 4.19948e-25
    Average linear kinetic energy   = 1.58307e-20
    Average internal energy         = 1.05635e-20
    Average total energy            = 2.63942e-20
deltaT = 6.54566e-06
Mean and max Courant Numbers = 0.196556 0.198956
diagonal:  Solving for rho, Initial residual = 0, Final residual = 0, No Iterations 0
diagonal:  Solving for rhoUx, Initial residual = 0, Final residual = 0, No Iterations 0

FLUID VEL BC
Particle velocity: (-20.6465 22.8439 79.0163)
Fluid velocity : (11.2204 0 0)diagonal:  Solving for rhoE, Initial residual = 0, Final residual = 0, No Iterations 0

FLUID TEMP BC
Particle overallT: 937.986
Particle TRans T: 947.684
Fluid Temp: 906.434

FLUID PRESSURE BC
Particle pressure formula 1: 121.945
Particle pressure formula 2: 121.945
Particle pressure from rhoM: 120.65
Particle pressure from rhoM T_trans: 121.898
Particle overallT: 937.986
Particle TRans T: 947.684

ExecutionTime = 20.23 s  ClockTime = 78 s  Iterations: 13.9983/219.993  Projected time to finish: 4.96165 min
fieldAverage fieldAverage1 write:
    Calculating averages

Time = 9.81736e-05


Virtual Number Density of inserted particles: 23202.2
Particle Boundary Temp: 914.684
Particle Boundary Velocity: (7.49867 4.56879 15.8033)    Particles inserted              = 32
    Collisions                      = 1025951
    Acceptance rate                 = 0.533226

Cloud name: dsmc
    Number of dsmc particles        = 87980
    Number of molecules             = 3.5192e+22
    Mass in system                  = 0.00163643
    Average linear momentum         = (4.36944e-25 5.16796e-27 -6.55397e-26)
   |Average linear momentum|        = 4.41863e-25
    Average linear kinetic energy   = 1.58304e-20
    Average internal energy         = 1.05629e-20
    Average total energy            = 2.63933e-20
deltaT = 6.54566e-06
Mean and max Courant Numbers = 0.196562 0.199658
diagonal:  Solving for rho, Initial residual = 0, Final residual = 0, No Iterations 0
diagonal:  Solving for rhoUx, Initial residual = 0, Final residual = 0, No Iterations 0

FLUID VEL BC
Particle velocity: (-4.47268 45.9635 22.602)
Fluid velocity : (4.1624 0 0)diagonal:  Solving for rhoE, Initial residual = 0, Final residual = 0, No Iterations 0

FLUID TEMP BC
Particle overallT: 900.353
Particle TRans T: 950.496
Fluid Temp: 906.53

FLUID PRESSURE BC
Particle pressure formula 1: 117.057
Particle pressure formula 2: 117.057
Particle pressure from rhoM: 110.839
Particle pressure from rhoM T_trans: 117.012
Particle overallT: 900.353
Particle TRans T: 950.496

ExecutionTime = 21.76 s  ClockTime = 79 s  Iterations: 14.9983/219.993  Projected time to finish: 4.95689 min
fieldAverage fieldAverage1 write:
    Calculating averages

Time = 0.000104719


Virtual Number Density of inserted particles: 22964
Particle Boundary Temp: 915.323
Particle Boundary Velocity: (6.67021 9.1927 4.5204)    Particles inserted              = 32
    Collisions                      = 1024348
    Acceptance rate                 = 0.532013

Cloud name: dsmc
    Number of dsmc particles        = 87983
    Number of molecules             = 3.51932e+22
    Mass in system                  = 0.00163648
    Average linear momentum         = (4.57765e-25 3.55367e-27 -6.32175e-26)
   |Average linear momentum|        = 4.62123e-25
    Average linear kinetic energy   = 1.5841e-20
    Average internal energy         = 1.05547e-20
    Average total energy            = 2.63957e-20
deltaT = 6.54566e-06
Mean and max Courant Numbers = 0.196549 0.19882
diagonal:  Solving for rho, Initial residual = 0, Final residual = 0, No Iterations 0
diagonal:  Solving for rhoUx, Initial residual = 0, Final residual = 0, No Iterations 0

FLUID VEL BC
Particle velocity: (-18.3957 27.3106 22.4211)
Fluid velocity : (0.0347483 0 0)diagonal:  Solving for rhoE, Initial residual = 0, Final residual = 0, No Iterations 0

FLUID TEMP BC
Particle overallT: 925.561
Particle TRans T: 892.704
Fluid Temp: 905.763

FLUID PRESSURE BC
Particle pressure formula 1: 104.517
Particle pressure formula 2: 104.517
Particle pressure from rhoM: 108.322
Particle pressure from rhoM T_trans: 104.477
Particle overallT: 925.561
Particle TRans T: 892.704

ExecutionTime = 23.29 s  ClockTime = 81 s  Iterations: 15.9983/219.993  Projected time to finish: 4.94953 min
fieldAverage fieldAverage1 write:
    Calculating averages

Time = 0.000111265


Virtual Number Density of inserted particles: 22654.7
Particle Boundary Temp: 903.151
Particle Boundary Velocity: (-1.17476 5.46211 4.48422)    Particles inserted              = 30
    Collisions                      = 1025465
    Acceptance rate                 = 0.531884

Cloud name: dsmc
    Number of dsmc particles        = 87980
    Number of molecules             = 3.5192e+22
    Mass in system                  = 0.00163643
    Average linear momentum         = (4.76371e-25 4.52315e-27 -6.27257e-26)
   |Average linear momentum|        = 4.80504e-25
    Average linear kinetic energy   = 1.59136e-20
    Average internal energy         = 1.04797e-20
    Average total energy            = 2.63932e-20
deltaT = 6.54566e-06
Mean and max Courant Numbers = 0.196536 0.197269
diagonal:  Solving for rho, Initial residual = 0, Final residual = 0, No Iterations 0
diagonal:  Solving for rhoUx, Initial residual = 0, Final residual = 0, No Iterations 0

FLUID VEL BC
Particle velocity: (-40.3709 56.3194 25.7809)
Fluid velocity : (1.09978 0 0)diagonal:  Solving for rhoE, Initial residual = 0, Final residual = 0, No Iterations 0

FLUID TEMP BC
Particle overallT: 897.47
Particle TRans T: 872.51
Fluid Temp: 904.212

FLUID PRESSURE BC
Particle pressure formula 1: 99.7434
Particle pressure formula 2: 99.7434
Particle pressure from rhoM: 102.557
Particle pressure from rhoM T_trans: 99.7051
Particle overallT: 897.47
Particle TRans T: 872.51

ExecutionTime = 24.67 s  ClockTime = 82 s  Iterations: 16.9983/219.993  Projected time to finish: 4.91019 min
fieldAverage fieldAverage1 write:
    Calculating averages

Time = 0.000117811


Virtual Number Density of inserted particles: 22477
Particle Boundary Temp: 897.872
Particle Boundary Velocity: (-7.83338 11.2639 5.15618)    Particles inserted              = 30
    Collisions                      = 1024927
    Acceptance rate                 = 0.530818

Cloud name: dsmc
    Number of dsmc particles        = 87988
    Number of molecules             = 3.51952e+22
    Mass in system                  = 0.00163658
    Average linear momentum         = (4.96785e-25 2.60075e-27 -5.97754e-26)
   |Average linear momentum|        = 5.00375e-25
    Average linear kinetic energy   = 1.58527e-20
    Average internal energy         = 1.05412e-20
    Average total energy            = 2.63939e-20
deltaT = 6.54566e-06
Mean and max Courant Numbers = 0.196544 0.197801
diagonal:  Solving for rho, Initial residual = 0, Final residual = 0, No Iterations 0
diagonal:  Solving for rhoUx, Initial residual = 0, Final residual = 0, No Iterations 0

FLUID VEL BC
Particle velocity: (20.8398 50.6905 35.0467)
Fluid velocity : (4.30171 0 0)diagonal:  Solving for rhoE, Initial residual = 0, Final residual = 0, No Iterations 0

FLUID TEMP BC
Particle overallT: 858.661
Particle TRans T: 848.049
Fluid Temp: 903.385

FLUID PRESSURE BC
Particle pressure formula 1: 98.8205
Particle pressure formula 2: 98.8205
Particle pressure from rhoM: 100.019
Particle pressure from rhoM T_trans: 98.7826
Particle overallT: 858.661
Particle TRans T: 848.049

ExecutionTime = 26.08 s  ClockTime = 83 s  Iterations: 17.9983/219.993  Projected time to finish: 4.87827 min
fieldAverage fieldAverage1 write:
    Calculating averages

Time = 0.000124356


Virtual Number Density of inserted particles: 22586.9
Particle Boundary Temp: 892.318
Particle Boundary Velocity: (5.68817 10.1381 7.00934)    Particles inserted              = 30
    Collisions                      = 1025415
    Acceptance rate                 = 0.530591

Cloud name: dsmc
    Number of dsmc particles        = 87995
    Number of molecules             = 3.5198e+22
    Mass in system                  = 0.00163671
    Average linear momentum         = (5.1041e-25 9.96165e-28 -6.04274e-26)
   |Average linear momentum|        = 5.13975e-25
    Average linear kinetic energy   = 1.58178e-20
    Average internal energy         = 1.05794e-20
    Average total energy            = 2.63972e-20
deltaT = 6.54566e-06
Mean and max Courant Numbers = 0.196542 0.19733
diagonal:  Solving for rho, Initial residual = 0, Final residual = 0, No Iterations 0
diagonal:  Solving for rhoUx, Initial residual = 0, Final residual = 0, No Iterations 0

FLUID VEL BC
Particle velocity: (-38.2104 47.0344 33.5378)
Fluid velocity : (7.85958 0 0)diagonal:  Solving for rhoE, Initial residual = 0, Final residual = 0, No Iterations 0

FLUID TEMP BC
Particle overallT: 894.019
Particle TRans T: 894.541
Fluid Temp: 904.378

FLUID PRESSURE BC
Particle pressure formula 1: 105.72
Particle pressure formula 2: 105.72
Particle pressure from rhoM: 105.618
Particle pressure from rhoM T_trans: 105.68
Particle overallT: 894.019
Particle TRans T: 894.541

ExecutionTime = 27.5 s  ClockTime = 85 s  Iterations: 18.9983/219.993  Projected time to finish: 4.849 min
fieldAverage fieldAverage1 write:
    Calculating averages

Time = 0.000130902


Virtual Number Density of inserted particles: 22654.4
Particle Boundary Temp: 902.41
Particle Boundary Velocity: (-3.48914 9.40689 6.70756)    Particles inserted              = 31
    Collisions                      = 1023895
    Acceptance rate                 = 0.529329

Cloud name: dsmc
    Number of dsmc particles        = 87991
    Number of molecules             = 3.51964e+22
    Mass in system                  = 0.00163663
    Average linear momentum         = (5.33151e-25 -1.28857e-27 -6.18474e-26)
   |Average linear momentum|        = 5.36728e-25
    Average linear kinetic energy   = 1.59267e-20
    Average internal energy         = 1.04703e-20
    Average total energy            = 2.6397e-20
deltaT = 6.54566e-06
Mean and max Courant Numbers = 0.196554 0.197729
diagonal:  Solving for rho, Initial residual = 0, Final residual = 0, No Iterations 0
diagonal:  Solving for rhoUx, Initial residual = 0, Final residual = 0, No Iterations 0

FLUID VEL BC
Particle velocity: (1.53134 46.307 57.8968)
Fluid velocity : (7.2287 0 0)diagonal:  Solving for rhoE, Initial residual = 0, Final residual = 0, No Iterations 0

FLUID TEMP BC
Particle overallT: 910.892
Particle TRans T: 914.465
Fluid Temp: 902.709

FLUID PRESSURE BC
Particle pressure formula 1: 102.015
Particle pressure formula 2: 102.015
Particle pressure from rhoM: 101.577
Particle pressure from rhoM T_trans: 101.975
Particle overallT: 910.892
Particle TRans T: 914.465

ExecutionTime = 28.89 s  ClockTime = 86 s  Iterations: 19.9983/219.993  Projected time to finish: 4.81529 min
fieldAverage fieldAverage1 write:
    Calculating averages

Time = 0.000137448


Virtual Number Density of inserted particles: 22367.1
Particle Boundary Temp: 905.06
Particle Boundary Velocity: (6.46776 9.26139 11.5794)    Particles inserted              = 31
    Collisions                      = 1023745
    Acceptance rate                 = 0.52905

Cloud name: dsmc
    Number of dsmc particles        = 87993
    Number of molecules             = 3.51972e+22
    Mass in system                  = 0.00163667
    Average linear momentum         = (5.51419e-25 -1.05739e-28 -6.25685e-26)
   |Average linear momentum|        = 5.54957e-25
    Average linear kinetic energy   = 1.58607e-20
    Average internal energy         = 1.05385e-20
    Average total energy            = 2.63992e-20
deltaT = 6.54566e-06
Mean and max Courant Numbers = 0.196557 0.198382
diagonal:  Solving for rho, Initial residual = 0, Final residual = 0, No Iterations 0
diagonal:  Solving for rhoUx, Initial residual = 0, Final residual = 0, No Iterations 0

FLUID VEL BC
Particle velocity: (-14.9028 67.9335 37.1071)
Fluid velocity : (8.4816 0 0)diagonal:  Solving for rhoE, Initial residual = 0, Final residual = 0, No Iterations 0

FLUID TEMP BC
Particle overallT: 912.773
Particle TRans T: 894.006
Fluid Temp: 903.678

FLUID PRESSURE BC
Particle pressure formula 1: 103.682
Particle pressure formula 2: 103.682
Particle pressure from rhoM: 105.818
Particle pressure from rhoM T_trans: 103.642
Particle overallT: 912.773
Particle TRans T: 894.006

ExecutionTime = 30.33 s  ClockTime = 88 s  Iterations: 20.9983/219.993  Projected time to finish: 4.79048 min
fieldAverage fieldAverage1 write:
    Calculating averages

Time = 0.000143993


Virtual Number Density of inserted particles: 22552
Particle Boundary Temp: 901.744
Particle Boundary Velocity: (3.05298 13.5867 7.42142)    Particles inserted              = 30
    Collisions                      = 1023431
    Acceptance rate                 = 0.528935

Cloud name: dsmc
    Number of dsmc particles        = 87993
    Number of molecules             = 3.51972e+22
    Mass in system                  = 0.00163667
    Average linear momentum         = (5.71671e-25 -2.32302e-27 -7.06301e-26)
   |Average linear momentum|        = 5.76022e-25
    Average linear kinetic energy   = 1.5872e-20
    Average internal energy         = 1.05234e-20
    Average total energy            = 2.63954e-20
deltaT = 6.54566e-06
Mean and max Courant Numbers = 0.19655 0.197806
diagonal:  Solving for rho, Initial residual = 0, Final residual = 0, No Iterations 0
diagonal:  Solving for rhoUx, Initial residual = 0, Final residual = 0, No Iterations 0

FLUID VEL BC
Particle velocity: (-15.0819 23.1512 -17.6693)
Fluid velocity : (8.47616 0 0)diagonal:  Solving for rhoE, Initial residual = 0, Final residual = 0, No Iterations 0

FLUID TEMP BC
Particle overallT: 842.899
Particle TRans T: 880.421
Fluid Temp: 902.531

FLUID PRESSURE BC
Particle pressure formula 1: 101.62
Particle pressure formula 2: 101.62
Particle pressure from rhoM: 97.2521
Particle pressure from rhoM T_trans: 101.581
Particle overallT: 842.899
Particle TRans T: 880.421

ExecutionTime = 31.72 s  ClockTime = 89 s  Iterations: 21.9983/219.993  Projected time to finish: 4.75825 min
fieldAverage fieldAverage1 write:
    Calculating averages

Time = 0.000150539


Virtual Number Density of inserted particles: 22478.8
Particle Boundary Temp: 898.109
Particle Boundary Velocity: (3.76781 4.63023 -3.53386)    Particles inserted              = 31
    Collisions                      = 1024212
    Acceptance rate                 = 0.528546

Cloud name: dsmc
    Number of dsmc particles        = 88001
    Number of molecules             = 3.52004e+22
    Mass in system                  = 0.00163682
    Average linear momentum         = (5.87698e-25 -2.55995e-27 -7.2563e-26)
   |Average linear momentum|        = 5.92166e-25
    Average linear kinetic energy   = 1.58856e-20
    Average internal energy         = 1.0512e-20
    Average total energy            = 2.63976e-20
deltaT = 6.54566e-06
Mean and max Courant Numbers = 0.196551 0.197849
diagonal:  Solving for rho, Initial residual = 0, Final residual = 0, No Iterations 0
diagonal:  Solving for rhoUx, Initial residual = 0, Final residual = 0, No Iterations 0

FLUID VEL BC
Particle velocity: (-18.4435 -1.62122 -28.0007)
Fluid velocity : (9.80032 0 0)diagonal:  Solving for rhoE, Initial residual = 0, Final residual = 0, No Iterations 0

FLUID TEMP BC
Particle overallT: 869.5
Particle TRans T: 870.903
Fluid Temp: 902.179

FLUID PRESSURE BC
Particle pressure formula 1: 99.0788
Particle pressure formula 2: 99.0788
Particle pressure from rhoM: 98.8812
Particle pressure from rhoM T_trans: 99.0407
Particle overallT: 869.5
Particle TRans T: 870.903

ExecutionTime = 33.09 s  ClockTime = 90 s  Iterations: 22.9983/219.993  Projected time to finish: 4.72395 min
fieldAverage fieldAverage1 write:
    Calculating averages

Time = 0.000157085


Virtual Number Density of inserted particles: 22412.2
Particle Boundary Temp: 895.923
Particle Boundary Velocity: (3.35706 -0.324244 -5.60014)    Particles inserted              = 30
    Collisions                      = 1023762
    Acceptance rate                 = 0.527748

Cloud name: dsmc
    Number of dsmc particles        = 88001
    Number of molecules             = 3.52004e+22
    Mass in system                  = 0.00163682
    Average linear momentum         = (6.06755e-25 6.75471e-28 -7.27539e-26)
   |Average linear momentum|        = 6.11101e-25
    Average linear kinetic energy   = 1.58307e-20
    Average internal energy         = 1.05716e-20
    Average total energy            = 2.64023e-20
deltaT = 6.54566e-06
Mean and max Courant Numbers = 0.19655 0.197828
diagonal:  Solving for rho, Initial residual = 0, Final residual = 0, No Iterations 0
diagonal:  Solving for rhoUx, Initial residual = 0, Final residual = 0, No Iterations 0

FLUID VEL BC
Particle velocity: (-60.6791 27.43 -6.56062)
Fluid velocity : (11.7201 0 0)diagonal:  Solving for rhoE, Initial residual = 0, Final residual = 0, No Iterations 0

FLUID TEMP BC
Particle overallT: 932.927
Particle TRans T: 905.503
Fluid Temp: 901.85

FLUID PRESSURE BC
Particle pressure formula 1: 105.015
Particle pressure formula 2: 105.015
Particle pressure from rhoM: 108.154
Particle pressure from rhoM T_trans: 104.975
Particle overallT: 932.927
Particle TRans T: 905.503

ExecutionTime = 34.5 s  ClockTime = 92 s  Iterations: 23.9983/219.993  Projected time to finish: 4.69605 min
fieldAverage fieldAverage1 write:
    Calculating averages

Time = 0.00016363


Virtual Number Density of inserted particles: 22470.7
Particle Boundary Temp: 902.581
Particle Boundary Velocity: (-3.9116 5.486 -1.31212)    Particles inserted              = 31
    Collisions                      = 1023076
    Acceptance rate                 = 0.527361

Cloud name: dsmc
    Number of dsmc particles        = 88002
    Number of molecules             = 3.52008e+22
    Mass in system                  = 0.00163684
    Average linear momentum         = (6.28366e-25 1.16219e-28 -7.13636e-26)
   |Average linear momentum|        = 6.32405e-25
    Average linear kinetic energy   = 1.58627e-20
    Average internal energy         = 1.0538e-20
    Average total energy            = 2.64007e-20
deltaT = 6.54566e-06
Mean and max Courant Numbers = 0.196561 0.198475
diagonal:  Solving for rho, Initial residual = 0, Final residual = 0, No Iterations 0
diagonal:  Solving for rhoUx, Initial residual = 0, Final residual = 0, No Iterations 0

FLUID VEL BC
Particle velocity: (-78.1813 52.0351 1.79932)
Fluid velocity : (11.4212 0 0)diagonal:  Solving for rhoE, Initial residual = 0, Final residual = 0, No Iterations 0

FLUID TEMP BC
Particle overallT: 867.006
Particle TRans T: 877.296
Fluid Temp: 901.822

FLUID PRESSURE BC
Particle pressure formula 1: 100.775
Particle pressure formula 2: 100.775
Particle pressure from rhoM: 99.5548
Particle pressure from rhoM T_trans: 100.736
Particle overallT: 867.006
Particle TRans T: 877.296

ExecutionTime = 35.9 s  ClockTime = 93 s  Iterations: 24.9983/219.993  Projected time to finish: 4.6672 min
fieldAverage fieldAverage1 write:
    Calculating averages

Time = 0.000170176


Virtual Number Density of inserted particles: 22477
Particle Boundary Temp: 896.917
Particle Boundary Velocity: (-6.31995 10.407 0.359864)    Particles inserted              = 29
    Collisions                      = 1022134
    Acceptance rate                 = 0.526718

Cloud name: dsmc
    Number of dsmc particles        = 88000
    Number of molecules             = 3.52e+22
    Mass in system                  = 0.0016368
    Average linear momentum         = (6.48009e-25 -1.90042e-27 -6.9613e-26)
   |Average linear momentum|        = 6.5174e-25
    Average linear kinetic energy   = 1.58846e-20
    Average internal energy         = 1.05167e-20
    Average total energy            = 2.64013e-20
deltaT = 6.54566e-06
Mean and max Courant Numbers = 0.196565 0.198675
diagonal:  Solving for rho, Initial residual = 0, Final residual = 0, No Iterations 0
diagonal:  Solving for rhoUx, Initial residual = 0, Final residual = 0, No Iterations 0

FLUID VEL BC
Particle velocity: (-68.068 8.20384 8.80427)
Fluid velocity : (12.8798 0 0)diagonal:  Solving for rhoE, Initial residual = 0, Final residual = 0, No Iterations 0

FLUID TEMP BC
Particle overallT: 859.874
Particle TRans T: 848.153
Fluid Temp: 903.65

FLUID PRESSURE BC
Particle pressure formula 1: 96.0222
Particle pressure formula 2: 96.0222
Particle pressure from rhoM: 97.3118
Particle pressure from rhoM T_trans: 95.9853
Particle overallT: 859.874
Particle TRans T: 848.153

ExecutionTime = 37.33 s  ClockTime = 95 s  Iterations: 25.9983/219.993  Projected time to finish: 4.64251 min
fieldAverage fieldAverage1 write:
    Calculating averages

Time = 0.000176722


Virtual Number Density of inserted particles: 22532.8
Particle Boundary Temp: 892.551
Particle Boundary Velocity: (-4.18494 1.64077 1.76085)    Particles inserted              = 30
    Collisions                      = 1022661
    Acceptance rate                 = 0.526485

Cloud name: dsmc
    Number of dsmc particles        = 88004
    Number of molecules             = 3.52016e+22
    Mass in system                  = 0.00163687
    Average linear momentum         = (6.65191e-25 -1.21946e-27 -6.69625e-26)
   |Average linear momentum|        = 6.68554e-25
    Average linear kinetic energy   = 1.58376e-20
    Average internal energy         = 1.05665e-20
    Average total energy            = 2.64041e-20
deltaT = 6.54566e-06
Mean and max Courant Numbers = 0.196564 0.198213
diagonal:  Solving for rho, Initial residual = 0, Final residual = 0, No Iterations 0
diagonal:  Solving for rhoUx, Initial residual = 0, Final residual = 0, No Iterations 0

FLUID VEL BC
Particle velocity: (-63.8784 18.9324 30.8187)
Fluid velocity : (14.9523 0 0)diagonal:  Solving for rhoE, Initial residual = 0, Final residual = 0, No Iterations 0

FLUID TEMP BC
Particle overallT: 906.817
Particle TRans T: 899.897
Fluid Temp: 905.309

FLUID PRESSURE BC
Particle pressure formula 1: 106.353
Particle pressure formula 2: 106.353
Particle pressure from rhoM: 107.13
Particle pressure from rhoM T_trans: 106.312
Particle overallT: 906.817
Particle TRans T: 899.897

ExecutionTime = 38.73 s  ClockTime = 96 s  Iterations: 26.9983/219.993  Projected time to finish: 4.6143 min
fieldAverage fieldAverage1 write:
    Calculating averages

Time = 0.000183267


Virtual Number Density of inserted particles: 22781.7
Particle Boundary Temp: 904.227
Particle Boundary Velocity: (-2.05733 3.78647 6.16375)    Particles inserted              = 31
    Collisions                      = 1022535
    Acceptance rate                 = 0.526133

Cloud name: dsmc
    Number of dsmc particles        = 87994
    Number of molecules             = 3.51976e+22
    Mass in system                  = 0.00163669
    Average linear momentum         = (6.921e-25 -2.4883e-27 -6.87254e-26)
   |Average linear momentum|        = 6.95509e-25
    Average linear kinetic energy   = 1.589e-20
    Average internal energy         = 1.05126e-20
    Average total energy            = 2.64026e-20
deltaT = 6.54566e-06
Mean and max Courant Numbers = 0.196575 0.198577
diagonal:  Solving for rho, Initial residual = 0, Final residual = 0, No Iterations 0
diagonal:  Solving for rhoUx, Initial residual = 0, Final residual = 0, No Iterations 0

FLUID VEL BC
Particle velocity: (-6.75355 10.2439 -0.908407)
Fluid velocity : (12.8822 0 0)diagonal:  Solving for rhoE, Initial residual = 0, Final residual = 0, No Iterations 0

FLUID TEMP BC
Particle overallT: 891.688
Particle TRans T: 877.065
Fluid Temp: 906.263

FLUID PRESSURE BC
Particle pressure formula 1: 98.8111
Particle pressure formula 2: 98.8111
Particle pressure from rhoM: 100.42
Particle pressure from rhoM T_trans: 98.7731
Particle overallT: 891.688
Particle TRans T: 877.065

ExecutionTime = 40.14 s  ClockTime = 98 s  Iterations: 27.9983/219.993  Projected time to finish: 4.58759 min
fieldAverage fieldAverage1 write:
    Calculating averages

Time = 0.000189813


Virtual Number Density of inserted particles: 22649.2
Particle Boundary Temp: 900.423
Particle Boundary Velocity: (10.1971 2.04878 -0.181681)    Particles inserted              = 31
    Collisions                      = 1021922
    Acceptance rate                 = 0.52578

Cloud name: dsmc
    Number of dsmc particles        = 87998
    Number of molecules             = 3.51992e+22
    Mass in system                  = 0.00163676
    Average linear momentum         = (7.09681e-25 -1.18105e-27 -7.16008e-26)
   |Average linear momentum|        = 7.13285e-25
    Average linear kinetic energy   = 1.59155e-20
    Average internal energy         = 1.04889e-20
    Average total energy            = 2.64044e-20
deltaT = 6.54566e-06
Mean and max Courant Numbers = 0.196584 0.199559
diagonal:  Solving for rho, Initial residual = 0, Final residual = 0, No Iterations 0
diagonal:  Solving for rhoUx, Initial residual = 0, Final residual = 0, No Iterations 0

FLUID VEL BC
Particle velocity: (-19.7085 -4.42211 -36.6586)
Fluid velocity : (13.315 0 0)diagonal:  Solving for rhoE, Initial residual = 0, Final residual = 0, No Iterations 0

FLUID TEMP BC
Particle overallT: 862.633
Particle TRans T: 934.147
Fluid Temp: 906.897

FLUID PRESSURE BC
Particle pressure formula 1: 104.21
Particle pressure formula 2: 104.21
Particle pressure from rhoM: 96.1954
Particle pressure from rhoM T_trans: 104.17
Particle overallT: 862.633
Particle TRans T: 934.147

ExecutionTime = 41.56 s  ClockTime = 99 s  Iterations: 28.9983/219.993  Projected time to finish: 4.56219 min
fieldAverage fieldAverage1 write:
    Calculating averages

Time = 0.000196358


Virtual Number Density of inserted particles: 22562.4
Particle Boundary Temp: 912.347
Particle Boundary Velocity: (6.4506 -0.884423 -7.33172)    Particles inserted              = 31
    Collisions                      = 1021180
    Acceptance rate                 = 0.525067

Cloud name: dsmc
    Number of dsmc particles        = 87997
    Number of molecules             = 3.51988e+22
    Mass in system                  = 0.00163674
    Average linear momentum         = (7.30965e-25 -1.99191e-27 -6.75144e-26)
   |Average linear momentum|        = 7.34079e-25
    Average linear kinetic energy   = 1.59094e-20
    Average internal energy         = 1.04939e-20
    Average total energy            = 2.64033e-20
deltaT = 6.54566e-06
Mean and max Courant Numbers = 0.196584 0.199437
diagonal:  Solving for rho, Initial residual = 0, Final residual = 0, No Iterations 0
diagonal:  Solving for rhoUx, Initial residual = 0, Final residual = 0, No Iterations 0

FLUID VEL BC
Particle velocity: (-56.5624 -21.243 17.5128)
Fluid velocity : (11.0986 0 0)diagonal:  Solving for rhoE, Initial residual = 0, Final residual = 0, No Iterations 0

FLUID TEMP BC
Particle overallT: 846.572
Particle TRans T: 881.17
Fluid Temp: 904.784

FLUID PRESSURE BC
Particle pressure formula 1: 94.4072
Particle pressure formula 2: 94.4072
Particle pressure from rhoM: 90.6656
Particle pressure from rhoM T_trans: 94.371
Particle overallT: 846.572
Particle TRans T: 881.17

ExecutionTime = 42.98 s  ClockTime = 100 s  Iterations: 29.9983/219.993  Projected time to finish: 4.53692 min
fieldAverage fieldAverage1 write:
    Calculating averages

Time = 0.000202904


Virtual Number Density of inserted particles: 22334.7
Particle Boundary Temp: 900.061
Particle Boundary Velocity: (-1.10376 -4.24861 3.50256)    Particles inserted              = 30
    Collisions                      = 1022276
    Acceptance rate                 = 0.525401

Cloud name: dsmc
    Number of dsmc particles        = 87998
    Number of molecules             = 3.51992e+22
    Mass in system                  = 0.00163676
    Average linear momentum         = (7.48573e-25 8.1472e-29 -7.02745e-26)
   |Average linear momentum|        = 7.51865e-25
    Average linear kinetic energy   = 1.59157e-20
    Average internal energy         = 1.04883e-20
    Average total energy            = 2.6404e-20
deltaT = 6.54566e-06
Mean and max Courant Numbers = 0.196565 0.197928
diagonal:  Solving for rho, Initial residual = 0, Final residual = 0, No Iterations 0
diagonal:  Solving for rhoUx, Initial residual = 0, Final residual = 0, No Iterations 0

FLUID VEL BC
Particle velocity: (-40.8315 20.1681 -9.60374)
Fluid velocity : (13.3174 0 0)diagonal:  Solving for rhoE, Initial residual = 0, Final residual = 0, No Iterations 0

FLUID TEMP BC
Particle overallT: 893.364
Particle TRans T: 870.047
Fluid Temp: 904.551

FLUID PRESSURE BC
Particle pressure formula 1: 97.0594
Particle pressure formula 2: 97.0594
Particle pressure from rhoM: 99.6223
Particle pressure from rhoM T_trans: 97.0222
Particle overallT: 893.364
Particle TRans T: 870.047

ExecutionTime = 44.37 s  ClockTime = 102 s  Iterations: 30.9983/219.993  Projected time to finish: 4.50869 min
fieldAverage fieldAverage1 write:
    Calculating averages

Time = 0.00020945


Virtual Number Density of inserted particles: 22471.8
Particle Boundary Temp: 897.65
Particle Boundary Velocity: (1.15636 4.03361 -1.92075)    Particles inserted              = 31
    Collisions                      = 1020721
    Acceptance rate                 = 0.524132

Cloud name: dsmc
    Number of dsmc particles        = 88010
    Number of molecules             = 3.5204e+22
    Mass in system                  = 0.00163699
    Average linear momentum         = (7.63301e-25 9.13802e-28 -6.93755e-26)
   |Average linear momentum|        = 7.66448e-25
    Average linear kinetic energy   = 1.58707e-20
    Average internal energy         = 1.05348e-20
    Average total energy            = 2.64056e-20
deltaT = 6.54566e-06
Mean and max Courant Numbers = 0.196568 0.198066
diagonal:  Solving for rho, Initial residual = 0, Final residual = 0, No Iterations 0
diagonal:  Solving for rhoUx, Initial residual = 0, Final residual = 0, No Iterations 0

FLUID VEL BC
Particle velocity: (-42.9996 2.93481 18.406)
Fluid velocity : (14.7367 0 0)diagonal:  Solving for rhoE, Initial residual = 0, Final residual = 0, No Iterations 0

FLUID TEMP BC
Particle overallT: 887.503
Particle TRans T: 921.123
Fluid Temp: 904.843

FLUID PRESSURE BC
Particle pressure formula 1: 112.423
Particle pressure formula 2: 112.423
Particle pressure from rhoM: 108.278
Particle pressure from rhoM T_trans: 112.379
Particle overallT: 887.503
Particle TRans T: 921.123

ExecutionTime = 45.76 s  ClockTime = 103 s  Iterations: 31.9983/219.993  Projected time to finish: 4.48079 min
fieldAverage fieldAverage1 write:
    Calculating averages

Time = 0.000215995


Virtual Number Density of inserted particles: 22861.8
Particle Boundary Temp: 908.099
Particle Boundary Velocity: (2.33788 0.586962 3.68121)    Particles inserted              = 31
    Collisions                      = 1022117
    Acceptance rate                 = 0.524889

Cloud name: dsmc
    Number of dsmc particles        = 88004
    Number of molecules             = 3.52016e+22
    Mass in system                  = 0.00163687
    Average linear momentum         = (7.83531e-25 -3.09131e-27 -6.44505e-26)
   |Average linear momentum|        = 7.86183e-25
    Average linear kinetic energy   = 1.59391e-20
    Average internal energy         = 1.04638e-20
    Average total energy            = 2.64029e-20
deltaT = 6.54566e-06
Mean and max Courant Numbers = 0.19658 0.198682
diagonal:  Solving for rho, Initial residual = 0, Final residual = 0, No Iterations 0
diagonal:  Solving for rhoUx, Initial residual = 0, Final residual = 0, No Iterations 0

FLUID VEL BC
Particle velocity: (-36.6978 -10.7664 45.0993)
Fluid velocity : (10.6955 0 0)diagonal:  Solving for rhoE, Initial residual = 0, Final residual = 0, No Iterations 0

FLUID TEMP BC
Particle overallT: 879.064
Particle TRans T: 942.653
Fluid Temp: 904.926

FLUID PRESSURE BC
Particle pressure formula 1: 102.036
Particle pressure formula 2: 102.036
Particle pressure from rhoM: 95.1159
Particle pressure from rhoM T_trans: 101.996
Particle overallT: 879.064
Particle TRans T: 942.653

ExecutionTime = 47.21 s  ClockTime = 105 s  Iterations: 32.9983/219.993  Projected time to finish: 4.45883 min
fieldAverage fieldAverage1 write:
    Calculating averages

Time = 0.000222541


Virtual Number Density of inserted particles: 22356.7
Particle Boundary Temp: 912.472
Particle Boundary Velocity: (3.64154 -2.15327 9.01986)    Particles inserted              = 31
    Collisions                      = 1021574
    Acceptance rate                 = 0.524448

Cloud name: dsmc
    Number of dsmc particles        = 87999
    Number of molecules             = 3.51996e+22
    Mass in system                  = 0.00163678
    Average linear momentum         = (8.06273e-25 -3.86381e-27 -6.50065e-26)
   |Average linear momentum|        = 8.08899e-25
    Average linear kinetic energy   = 1.58885e-20
    Average internal energy         = 1.05149e-20
    Average total energy            = 2.64035e-20
deltaT = 6.54566e-06
Mean and max Courant Numbers = 0.196579 0.198878
diagonal:  Solving for rho, Initial residual = 0, Final residual = 0, No Iterations 0
diagonal:  Solving for rhoUx, Initial residual = 0, Final residual = 0, No Iterations 0

FLUID VEL BC
Particle velocity: (20.1899 -24.7179 30.2142)
Fluid velocity : (10.5382 0 0)diagonal:  Solving for rhoE, Initial residual = 0, Final residual = 0, No Iterations 0

FLUID TEMP BC
Particle overallT: 916.502
Particle TRans T: 945.095
Fluid Temp: 905.587

FLUID PRESSURE BC
Particle pressure formula 1: 102.822
Particle pressure formula 2: 102.822
Particle pressure from rhoM: 99.6728
Particle pressure from rhoM T_trans: 102.782
Particle overallT: 916.502
Particle TRans T: 945.095

ExecutionTime = 48.62 s  ClockTime = 106 s  Iterations: 33.9983/219.993  Projected time to finish: 4.4331 min
fieldAverage fieldAverage1 write:
    Calculating averages

Time = 0.000229087


Virtual Number Density of inserted particles: 22369.3
Particle Boundary Temp: 913.489
Particle Boundary Velocity: (12.563 -4.94358 6.04284)    Particles inserted              = 31
    Collisions                      = 1019466
    Acceptance rate                 = 0.523552

Cloud name: dsmc
    Number of dsmc particles        = 87999
    Number of molecules             = 3.51996e+22
    Mass in system                  = 0.00163678
    Average linear momentum         = (8.26465e-25 -3.66356e-27 -6.21802e-26)
   |Average linear momentum|        = 8.28809e-25
    Average linear kinetic energy   = 1.58616e-20
    Average internal energy         = 1.05455e-20
    Average total energy            = 2.6407e-20
deltaT = 6.54566e-06
Mean and max Courant Numbers = 0.196592 0.200142
diagonal:  Solving for rho, Initial residual = 0, Final residual = 0, No Iterations 0
diagonal:  Solving for rhoUx, Initial residual = 0, Final residual = 0, No Iterations 0

FLUID VEL BC
Particle velocity: (-13.4048 -34.9832 60.062)
Fluid velocity : (10.2575 0 0)diagonal:  Solving for rhoE, Initial residual = 0, Final residual = 0, No Iterations 0

FLUID TEMP BC
Particle overallT: 873.65
Particle TRans T: 892.928
Fluid Temp: 905.605

FLUID PRESSURE BC
Particle pressure formula 1: 91.7219
Particle pressure formula 2: 91.7219
Particle pressure from rhoM: 89.7072
Particle pressure from rhoM T_trans: 91.6867
Particle overallT: 873.65
Particle TRans T: 892.928

ExecutionTime = 50.04 s  ClockTime = 107 s  Iterations: 34.9983/219.993  Projected time to finish: 4.40838 min
fieldAverage fieldAverage1 write:
    Calculating averages

Time = 0.000235632


Virtual Number Density of inserted particles: 22112.7
Particle Boundary Temp: 903.069
Particle Boundary Velocity: (5.69346 -6.99665 12.0124)    Particles inserted              = 30
    Collisions                      = 1019233
    Acceptance rate                 = 0.523848

Cloud name: dsmc
    Number of dsmc particles        = 88001
    Number of molecules             = 3.52004e+22
    Mass in system                  = 0.00163682
    Average linear momentum         = (8.46259e-25 -1.62393e-27 -6.56799e-26)
   |Average linear momentum|        = 8.48805e-25
    Average linear kinetic energy   = 1.58808e-20
    Average internal energy         = 1.05249e-20
    Average total energy            = 2.64057e-20
deltaT = 6.21838e-06
Mean and max Courant Numbers = 0.186752 0.188691
diagonal:  Solving for rho, Initial residual = 0, Final residual = 0, No Iterations 0
diagonal:  Solving for rhoUx, Initial residual = 0, Final residual = 0, No Iterations 0

FLUID VEL BC
Particle velocity: (-42.4862 -11.0765 40.9902)
Fluid velocity : (13.0781 0 0)diagonal:  Solving for rhoE, Initial residual = 0, Final residual = 0, No Iterations 0

FLUID TEMP BC
Particle overallT: 898.294
Particle TRans T: 904.526
Fluid Temp: 903.476

FLUID PRESSURE BC
Particle pressure formula 1: 96.41
Particle pressure formula 2: 96.41
Particle pressure from rhoM: 95.7089
Particle pressure from rhoM T_trans: 96.373
Particle overallT: 898.294
Particle TRans T: 904.526

ExecutionTime = 51.46 s  ClockTime = 109 s  Iterations: 37.8929/231.572  Projected time to finish: 4.38372 min
fieldAverage fieldAverage1 write:
    Calculating averages

Time = 0.000241851


Virtual Number Density of inserted particles: 22136.6
Particle Boundary Temp: 903.686
Particle Boundary Velocity: (0.272861 -2.21529 8.19804)    Particles inserted              = 29
    Collisions                      = 968180
    Acceptance rate                 = 0.523382

Cloud name: dsmc
    Number of dsmc particles        = 88009
    Number of molecules             = 3.52036e+22
    Mass in system                  = 0.00163697
    Average linear momentum         = (8.61336e-25 -2.67732e-27 -6.43164e-26)
   |Average linear momentum|        = 8.63738e-25
    Average linear kinetic energy   = 1.58799e-20
    Average internal energy         = 1.05249e-20
    Average total energy            = 2.64048e-20
deltaT = 6.56384e-06
Mean and max Courant Numbers = 0.197123 0.198521
diagonal:  Solving for rho, Initial residual = 0, Final residual = 0, No Iterations 0
diagonal:  Solving for rhoUx, Initial residual = 0, Final residual = 0, No Iterations 0

FLUID VEL BC
Particle velocity: (-55.5955 -13.7974 40.3167)
Fluid velocity : (14.7479 0 0)diagonal:  Solving for rhoE, Initial residual = 0, Final residual = 0, No Iterations 0

FLUID TEMP BC
Particle overallT: 884.805
Particle TRans T: 887.341
Fluid Temp: 902.463

FLUID PRESSURE BC
Particle pressure formula 1: 98.9887
Particle pressure formula 2: 98.9887
Particle pressure from rhoM: 98.6679
Particle pressure from rhoM T_trans: 98.9507
Particle overallT: 884.805
Particle TRans T: 887.341

ExecutionTime = 52.85 s  ClockTime = 110 s  Iterations: 36.8459/219.384  Projected time to finish: 4.36372 min
fieldAverage fieldAverage1 write:
    Calculating averages

Time = 0.000248415


Virtual Number Density of inserted particles: 22333.3
Particle Boundary Temp: 899.439
Particle Boundary Velocity: (-0.322663 -2.75949 8.06334)    Particles inserted              = 30
    Collisions                      = 1020927
    Acceptance rate                 = 0.522733

Cloud name: dsmc
    Number of dsmc particles        = 88016
    Number of molecules             = 3.52064e+22
    Mass in system                  = 0.0016371
    Average linear momentum         = (8.76318e-25 -5.38687e-28 -6.45124e-26)
   |Average linear momentum|        = 8.78689e-25
    Average linear kinetic energy   = 1.58787e-20
    Average internal energy         = 1.05256e-20
    Average total energy            = 2.64042e-20
deltaT = 6.56384e-06
Mean and max Courant Numbers = 0.19713 0.198882
diagonal:  Solving for rho, Initial residual = 0, Final residual = 0, No Iterations 0
diagonal:  Solving for rhoUx, Initial residual = 0, Final residual = 0, No Iterations 0

FLUID VEL BC
Particle velocity: (-50.2922 15.3989 58.4341)
Fluid velocity : (15.9967 0 0)diagonal:  Solving for rhoE, Initial residual = 0, Final residual = 0, No Iterations 0

FLUID TEMP BC
Particle overallT: 859.7
Particle TRans T: 845.03
Fluid Temp: 903.356

FLUID PRESSURE BC
Particle pressure formula 1: 103.135
Particle pressure formula 2: 103.135
Particle pressure from rhoM: 104.886
Particle pressure from rhoM T_trans: 103.096
Particle overallT: 859.7
Particle TRans T: 845.03

ExecutionTime = 54.29 s  ClockTime = 112 s  Iterations: 37.8459/219.384  Projected time to finish: 4.34027 min
fieldAverage fieldAverage1 write:
    Calculating averages

Time = 0.000254979


Virtual Number Density of inserted particles: 22774
Particle Boundary Temp: 891.69
Particle Boundary Velocity: (1.98966 3.07978 11.6868)    Particles inserted              = 31
    Collisions                      = 1020882
    Acceptance rate                 = 0.522477

Cloud name: dsmc
    Number of dsmc particles        = 88017
    Number of molecules             = 3.52068e+22
    Mass in system                  = 0.00163712
    Average linear momentum         = (8.97558e-25 1.03666e-27 -6.20594e-26)
   |Average linear momentum|        = 8.99702e-25
    Average linear kinetic energy   = 1.58822e-20
    Average internal energy         = 1.05221e-20
    Average total energy            = 2.64043e-20
deltaT = 6.56384e-06
Mean and max Courant Numbers = 0.197136 0.199135
diagonal:  Solving for rho, Initial residual = 0, Final residual = 0, No Iterations 0
diagonal:  Solving for rhoUx, Initial residual = 0, Final residual = 0, No Iterations 0

FLUID VEL BC
Particle velocity: (-19.4611 7.56635 101.599)
Fluid velocity : (15.5433 0 0)diagonal:  Solving for rhoE, Initial residual = 0, Final residual = 0, No Iterations 0

FLUID TEMP BC
Particle overallT: 839.852
Particle TRans T: 809.755
Fluid Temp: 904.16

FLUID PRESSURE BC
Particle pressure formula 1: 92.1223
Particle pressure formula 2: 92.1223
Particle pressure from rhoM: 95.5095
Particle pressure from rhoM T_trans: 92.0869
Particle overallT: 839.852
Particle TRans T: 809.755

ExecutionTime = 55.72 s  ClockTime = 113 s  Iterations: 38.8459/219.384  Projected time to finish: 4.31601 min
fieldAverage fieldAverage1 write:
    Calculating averages

Time = 0.000261542


Virtual Number Density of inserted particles: 22562.3
Particle Boundary Temp: 885.279
Particle Boundary Velocity: (8.81443 1.51327 20.3198)    Particles inserted              = 31
    Collisions                      = 1021514
    Acceptance rate                 = 0.52269

Cloud name: dsmc
    Number of dsmc particles        = 88010
    Number of molecules             = 3.5204e+22
    Mass in system                  = 0.00163699
    Average linear momentum         = (9.18423e-25 -5.84223e-28 -6.42634e-26)
   |Average linear momentum|        = 9.20669e-25
    Average linear kinetic energy   = 1.58944e-20
    Average internal energy         = 1.05103e-20
    Average total energy            = 2.64046e-20
deltaT = 6.56384e-06
Mean and max Courant Numbers = 0.197148 0.199394
diagonal:  Solving for rho, Initial residual = 0, Final residual = 0, No Iterations 0
diagonal:  Solving for rhoUx, Initial residual = 0, Final residual = 0, No Iterations 0

FLUID VEL BC
Particle velocity: (3.89918 24.9007 61.0487)
Fluid velocity : (18.1722 0 0)diagonal:  Solving for rhoE, Initial residual = 0, Final residual = 0, No Iterations 0

FLUID TEMP BC
Particle overallT: 848.381
Particle TRans T: 871.942
Fluid Temp: 904.565

FLUID PRESSURE BC
Particle pressure formula 1: 97.2709
Particle pressure formula 2: 97.2709
Particle pressure from rhoM: 94.6061
Particle pressure from rhoM T_trans: 97.2335
Particle overallT: 848.381
Particle TRans T: 871.942

ExecutionTime = 57.18 s  ClockTime = 115 s  Iterations: 39.8459/219.384  Projected time to finish: 4.29403 min
fieldAverage fieldAverage1 write:
    Calculating averages

Time = 0.000268106


Virtual Number Density of inserted particles: 22459.8
Particle Boundary Temp: 898.04
Particle Boundary Velocity: (13.7402 4.98014 12.2097)    Particles inserted              = 32
    Collisions                      = 1019582
    Acceptance rate                 = 0.521913

Cloud name: dsmc
    Number of dsmc particles        = 88014
    Number of molecules             = 3.52056e+22
    Mass in system                  = 0.00163706
    Average linear momentum         = (9.3698e-25 -2.90763e-28 -6.52958e-26)
   |Average linear momentum|        = 9.39252e-25
    Average linear kinetic energy   = 1.58835e-20
    Average internal energy         = 1.05241e-20
    Average total energy            = 2.64076e-20
deltaT = 6.56384e-06
Mean and max Courant Numbers = 0.19717 0.201038
diagonal:  Solving for rho, Initial residual = 0, Final residual = 0, No Iterations 0
diagonal:  Solving for rhoUx, Initial residual = 0, Final residual = 0, No Iterations 0

FLUID VEL BC
Particle velocity: (27.7424 10.1696 45.0723)
Fluid velocity : (18.1408 0 0)diagonal:  Solving for rhoE, Initial residual = 0, Final residual = 0, No Iterations 0

FLUID TEMP BC
Particle overallT: 908.777
Particle TRans T: 923.362
Fluid Temp: 903.493

FLUID PRESSURE BC
Particle pressure formula 1: 103.517
Particle pressure formula 2: 103.517
Particle pressure from rhoM: 101.843
Particle pressure from rhoM T_trans: 103.477
Particle overallT: 908.777
Particle TRans T: 923.362

ExecutionTime = 58.59 s  ClockTime = 116 s  Iterations: 40.8459/219.384  Projected time to finish: 4.26829 min
fieldAverage fieldAverage1 write:
    Calculating averages

Time = 0.00027467


Virtual Number Density of inserted particles: 22383
Particle Boundary Temp: 907.467
Particle Boundary Velocity: (20.0799 2.03391 9.01447)    Particles inserted              = 31
    Collisions                      = 1019922
    Acceptance rate                 = 0.521631

Cloud name: dsmc
    Number of dsmc particles        = 88030
    Number of molecules             = 3.5212e+22
    Mass in system                  = 0.00163736
    Average linear momentum         = (9.53385e-25 3.27573e-28 -6.45085e-26)
   |Average linear momentum|        = 9.55565e-25
    Average linear kinetic energy   = 1.59505e-20
    Average internal energy         = 1.04586e-20
    Average total energy            = 2.64091e-20
deltaT = 6.095e-06
Mean and max Courant Numbers = 0.183102 0.187942
diagonal:  Solving for rho, Initial residual = 0, Final residual = 0, No Iterations 0
diagonal:  Solving for rhoUx, Initial residual = 0, Final residual = 0, No Iterations 0

FLUID VEL BC
Particle velocity: (-25.2352 15.2132 41.1236)
Fluid velocity : (16.5217 0 0)diagonal:  Solving for rhoE, Initial residual = 0, Final residual = 0, No Iterations 0

FLUID TEMP BC
Particle overallT: 905.887
Particle TRans T: 947.675
Fluid Temp: 901.82

FLUID PRESSURE BC
Particle pressure formula 1: 110.43
Particle pressure formula 2: 110.43
Particle pressure from rhoM: 105.52
Particle pressure from rhoM T_trans: 110.387
Particle overallT: 905.887
Particle TRans T: 947.675

ExecutionTime = 60.03 s  ClockTime = 118 s  Iterations: 45.0648/236.259  Projected time to finish: 4.24478 min
fieldAverage fieldAverage1 write:
    Calculating averages

Time = 0.000280765


Virtual Number Density of inserted particles: 22429.1
Particle Boundary Temp: 910.991
Particle Boundary Velocity: (9.14176 3.04264 8.22473)    Particles inserted              = 30
    Collisions                      = 948102
    Acceptance rate                 = 0.522126

Cloud name: dsmc
    Number of dsmc particles        = 88029
    Number of molecules             = 3.52116e+22
    Mass in system                  = 0.00163734
    Average linear momentum         = (9.73704e-25 3.32602e-27 -6.81957e-26)
   |Average linear momentum|        = 9.76095e-25
    Average linear kinetic energy   = 1.58815e-20
    Average internal energy         = 1.05265e-20
    Average total energy            = 2.6408e-20
deltaT = 6.095e-06
Mean and max Courant Numbers = 0.183094 0.186499
diagonal:  Solving for rho, Initial residual = 0, Final residual = 0, No Iterations 0
diagonal:  Solving for rhoUx, Initial residual = 0, Final residual = 0, No Iterations 0

FLUID VEL BC
Particle velocity: (-17.5313 28.0748 50.6119)
Fluid velocity : (13.2528 0 0)diagonal:  Solving for rhoE, Initial residual = 0, Final residual = 0, No Iterations 0

FLUID TEMP BC
Particle overallT: 839.769
Particle TRans T: 846.394
Fluid Temp: 899.599

FLUID PRESSURE BC
Particle pressure formula 1: 90.6813
Particle pressure formula 2: 90.6813
Particle pressure from rhoM: 89.9371
Particle pressure from rhoM T_trans: 90.6465
Particle overallT: 839.769
Particle TRans T: 846.394

ExecutionTime = 61.42 s  ClockTime = 119 s  Iterations: 46.0648/236.259  Projected time to finish: 4.22656 min
fieldAverage fieldAverage1 write:
    Calculating averages

Time = 0.00028686


Virtual Number Density of inserted particles: 22035.4
Particle Boundary Temp: 888.958
Particle Boundary Velocity: (9.05731 5.61496 10.1224)    Particles inserted              = 28
    Collisions                      = 946518
    Acceptance rate                 = 0.521002

Cloud name: dsmc
    Number of dsmc particles        = 88037
    Number of molecules             = 3.52148e+22
    Mass in system                  = 0.00163749
    Average linear momentum         = (9.89151e-25 6.00503e-27 -6.56399e-26)
   |Average linear momentum|        = 9.91345e-25
    Average linear kinetic energy   = 1.59114e-20
    Average internal energy         = 1.04989e-20
    Average total energy            = 2.64103e-20
deltaT = 6.095e-06
Mean and max Courant Numbers = 0.183087 0.185324
diagonal:  Solving for rho, Initial residual = 0, Final residual = 0, No Iterations 0
diagonal:  Solving for rhoUx, Initial residual = 0, Final residual = 0, No Iterations 0

FLUID VEL BC
Particle velocity: (-48.1821 58.5222 70.686)
Fluid velocity : (17.5788 0 0)diagonal:  Solving for rhoE, Initial residual = 0, Final residual = 0, No Iterations 0

FLUID TEMP BC
Particle overallT: 873.385
Particle TRans T: 887.817
Fluid Temp: 899.707

FLUID PRESSURE BC
Particle pressure formula 1: 103.945
Particle pressure formula 2: 103.945
Particle pressure from rhoM: 102.216
Particle pressure from rhoM T_trans: 103.905
Particle overallT: 873.385
Particle TRans T: 887.817

ExecutionTime = 62.78 s  ClockTime = 120 s  Iterations: 47.0648/236.259  Projected time to finish: 4.20612 min
fieldAverage fieldAverage1 write:
    Calculating averages

Time = 0.000292955


Virtual Number Density of inserted particles: 22364.4
Particle Boundary Temp: 897.329
Particle Boundary Velocity: (1.83104 11.7044 14.1372)    Particles inserted              = 27
    Collisions                      = 944829
    Acceptance rate                 = 0.520083

Cloud name: dsmc
    Number of dsmc particles        = 88037
    Number of molecules             = 3.52148e+22
    Mass in system                  = 0.00163749
    Average linear momentum         = (1.00582e-24 5.78128e-27 -6.77052e-26)
   |Average linear momentum|        = 1.00812e-24
    Average linear kinetic energy   = 1.59251e-20
    Average internal energy         = 1.04858e-20
    Average total energy            = 2.6411e-20
deltaT = 6.095e-06
Mean and max Courant Numbers = 0.183092 0.185578
diagonal:  Solving for rho, Initial residual = 0, Final residual = 0, No Iterations 0
diagonal:  Solving for rhoUx, Initial residual = 0, Final residual = 0, No Iterations 0

FLUID VEL BC
Particle velocity: (-44.5546 68.3814 48.919)
Fluid velocity : (17.0374 0 0)diagonal:  Solving for rhoE, Initial residual = 0, Final residual = 0, No Iterations 0

FLUID TEMP BC
Particle overallT: 896.314
Particle TRans T: 862.77
Fluid Temp: 899.265

FLUID PRESSURE BC
Particle pressure formula 1: 100.536
[...]
    Collisions                      = 944892
    Acceptance rate                 = 0.505274

Cloud name: dsmc
    Number of dsmc particles        = 88168
    Number of molecules             = 3.52672e+22
    Mass in system                  = 0.00163992
    Average linear momentum         = (4.18307e-24 2.79088e-27 -6.28713e-26)
   |Average linear momentum|        = 4.18354e-24
    Average linear kinetic energy   = 1.61275e-20
    Average internal energy         = 1.03193e-20
    Average total energy            = 2.64468e-20
deltaT = 6.41701e-06
Mean and max Courant Numbers = 0.193853 0.196591
diagonal:  Solving for rho, Initial residual = 0, Final residual = 0, No Iterations 0
diagonal:  Solving for rhoUx, Initial residual = 0, Final residual = 0, No Iterations 0

FLUID VEL BC
Particle velocity: (-0.336969 64.878 47.555)
Fluid velocity : (9.18272 0 0)diagonal:  Solving for rhoE, Initial residual = 0, Final residual = 0, No Iterations 0

FLUID TEMP BC
Particle overallT: 923.429
Particle TRans T: 920.814
Fluid Temp: 905.892

FLUID PRESSURE BC
Particle pressure formula 1: 106.282
Particle pressure formula 2: 106.282
Particle pressure from rhoM: 106.543
Particle pressure from rhoM T_trans: 106.242
Particle overallT: 923.429
Particle TRans T: 920.814

ExecutionTime = 307.62 s  ClockTime = 368 s  Iterations: 213.403/224.403  Projected time to finish: 0.264274 min
fieldAverage fieldAverage1 write:
    Calculating averages

Time = 0.00137583


Virtual Number Density of inserted particles: 22639.1
Particle Boundary Temp: 908.876
Particle Boundary Velocity: (8.28675 12.9756 9.51099)    Particles inserted              = 31
    Collisions                      = 945352
    Acceptance rate                 = 0.505453

Cloud name: dsmc
    Number of dsmc particles        = 88177
    Number of molecules             = 3.52708e+22
    Mass in system                  = 0.00164009
    Average linear momentum         = (4.20059e-24 4.31834e-27 -6.30901e-26)
   |Average linear momentum|        = 4.20107e-24
    Average linear kinetic energy   = 1.6126e-20
    Average internal energy         = 1.03257e-20
    Average total energy            = 2.64517e-20
deltaT = 6.41701e-06
Mean and max Courant Numbers = 0.19386 0.196602
diagonal:  Solving for rho, Initial residual = 0, Final residual = 0, No Iterations 0
diagonal:  Solving for rhoUx, Initial residual = 0, Final residual = 0, No Iterations 0

FLUID VEL BC
Particle velocity: (-56.2943 43.3276 63.5414)
Fluid velocity : (7.99273 0 0)diagonal:  Solving for rhoE, Initial residual = 0, Final residual = 0, No Iterations 0

FLUID TEMP BC
Particle overallT: 941.826
Particle TRans T: 968.446
Fluid Temp: 906.004

FLUID PRESSURE BC
Particle pressure formula 1: 114.989
Particle pressure formula 2: 114.989
Particle pressure from rhoM: 111.786
Particle pressure from rhoM T_trans: 114.945
Particle overallT: 941.826
Particle TRans T: 968.446

ExecutionTime = 309.34 s  ClockTime = 370 s  Iterations: 214.403/224.403  Projected time to finish: 0.240466 min
fieldAverage fieldAverage1 write:
    Calculating averages

Time = 0.00138225


Virtual Number Density of inserted particles: 22721.9
Particle Boundary Temp: 918.492
Particle Boundary Velocity: (-4.15067 8.66551 12.7083)    Particles inserted              = 30
    Collisions                      = 944361
    Acceptance rate                 = 0.505415

Cloud name: dsmc
    Number of dsmc particles        = 88171
    Number of molecules             = 3.52684e+22
    Mass in system                  = 0.00163998
    Average linear momentum         = (4.22215e-24 2.72051e-27 -6.38189e-26)
   |Average linear momentum|        = 4.22263e-24
    Average linear kinetic energy   = 1.61457e-20
    Average internal energy         = 1.03007e-20
    Average total energy            = 2.64464e-20
deltaT = 6.41701e-06
Mean and max Courant Numbers = 0.193849 0.19648
diagonal:  Solving for rho, Initial residual = 0, Final residual = 0, No Iterations 0
diagonal:  Solving for rhoUx, Initial residual = 0, Final residual = 0, No Iterations 0

FLUID VEL BC
Particle velocity: (-2.93064 33.7793 45.4785)
Fluid velocity : (3.94286 0 0)diagonal:  Solving for rhoE, Initial residual = 0, Final residual = 0, No Iterations 0

FLUID TEMP BC
Particle overallT: 860.191
Particle TRans T: 813.998
Fluid Temp: 904.731

FLUID PRESSURE BC
Particle pressure formula 1: 90.3573
Particle pressure formula 2: 90.3573
Particle pressure from rhoM: 95.4483
Particle pressure from rhoM T_trans: 90.3226
Particle overallT: 860.191
Particle TRans T: 813.998

ExecutionTime = 310.81 s  ClockTime = 371 s  Iterations: 215.403/224.403  Projected time to finish: 0.216438 min
fieldAverage fieldAverage1 write:
    Calculating averages

Time = 0.00138866


Virtual Number Density of inserted particles: 22455.6
Particle Boundary Temp: 886.585
Particle Boundary Velocity: (4.99808 6.75585 9.09571)    Particles inserted              = 30
    Collisions                      = 943594
    Acceptance rate                 = 0.505313

Cloud name: dsmc
    Number of dsmc particles        = 88175
    Number of molecules             = 3.527e+22
    Mass in system                  = 0.00164006
    Average linear momentum         = (4.24051e-24 2.82491e-27 -6.20748e-26)
   |Average linear momentum|        = 4.24097e-24
    Average linear kinetic energy   = 1.61654e-20
    Average internal energy         = 1.02796e-20
    Average total energy            = 2.6445e-20
deltaT = 6.41701e-06
Mean and max Courant Numbers = 0.193843 0.196445
diagonal:  Solving for rho, Initial residual = 0, Final residual = 0, No Iterations 0
diagonal:  Solving for rhoUx, Initial residual = 0, Final residual = 0, No Iterations 0

FLUID VEL BC
Particle velocity: (21.1984 65.047 47.3305)
Fluid velocity : (9.59509 0 0)diagonal:  Solving for rhoE, Initial residual = 0, Final residual = 0, No Iterations 0

FLUID TEMP BC
Particle overallT: 846.06
Particle TRans T: 864.527
Fluid Temp: 906.053

FLUID PRESSURE BC
Particle pressure formula 1: 95.0113
Particle pressure formula 2: 95.0113
Particle pressure from rhoM: 92.9461
Particle pressure from rhoM T_trans: 94.9748
Particle overallT: 846.06
Particle TRans T: 864.527

ExecutionTime = 312.34 s  ClockTime = 373 s  Iterations: 216.403/224.403  Projected time to finish: 0.192443 min
fieldAverage fieldAverage1 write:
    Calculating averages

Time = 0.00139508


Virtual Number Density of inserted particles: 22394.5
Particle Boundary Temp: 897.748
Particle Boundary Velocity: (8.52442 13.0094 9.46609)    Particles inserted              = 30
    Collisions                      = 943948
    Acceptance rate                 = 0.505297

Cloud name: dsmc
    Number of dsmc particles        = 88182
    Number of molecules             = 3.52728e+22
    Mass in system                  = 0.00164019
    Average linear momentum         = (4.25572e-24 -8.55926e-28 -6.6015e-26)
   |Average linear momentum|        = 4.25624e-24
    Average linear kinetic energy   = 1.61851e-20
    Average internal energy         = 1.02632e-20
    Average total energy            = 2.64483e-20
deltaT = 6.41701e-06
Mean and max Courant Numbers = 0.19387 0.196547
diagonal:  Solving for rho, Initial residual = 0, Final residual = 0, No Iterations 0
diagonal:  Solving for rhoUx, Initial residual = 0, Final residual = 0, No Iterations 0

FLUID VEL BC
Particle velocity: (-23.4143 -8.97581 4.87094)
Fluid velocity : (11.8355 0 0)diagonal:  Solving for rhoE, Initial residual = 0, Final residual = 0, No Iterations 0

FLUID TEMP BC
Particle overallT: 883.362
Particle TRans T: 844.049
Fluid Temp: 904.185

FLUID PRESSURE BC
Particle pressure formula 1: 96.0237
Particle pressure formula 2: 96.0237
Particle pressure from rhoM: 100.458
Particle pressure from rhoM T_trans: 95.9868
Particle overallT: 883.362
Particle TRans T: 844.049

ExecutionTime = 313.91 s  ClockTime = 374 s  Iterations: 217.403/224.403  Projected time to finish: 0.168456 min
fieldAverage fieldAverage1 write:
    Calculating averages

Time = 0.0014015


Virtual Number Density of inserted particles: 22453.6
Particle Boundary Temp: 892.158
Particle Boundary Velocity: (3.44131 -1.79516 0.974189)    Particles inserted              = 30
    Collisions                      = 944616
    Acceptance rate                 = 0.505508

Cloud name: dsmc
    Number of dsmc particles        = 88185
    Number of molecules             = 3.5274e+22
    Mass in system                  = 0.00164024
    Average linear momentum         = (4.27234e-24 1.10017e-27 -6.71602e-26)
   |Average linear momentum|        = 4.27287e-24
    Average linear kinetic energy   = 1.61386e-20
    Average internal energy         = 1.03069e-20
    Average total energy            = 2.64456e-20
deltaT = 6.41701e-06
Mean and max Courant Numbers = 0.193854 0.196603
diagonal:  Solving for rho, Initial residual = 0, Final residual = 0, No Iterations 0
diagonal:  Solving for rhoUx, Initial residual = 0, Final residual = 0, No Iterations 0

FLUID VEL BC
Particle velocity: (-5.18148 -4.48564 -2.13797)
Fluid velocity : (13.7056 0 0)diagonal:  Solving for rhoE, Initial residual = 0, Final residual = 0, No Iterations 0

FLUID TEMP BC
Particle overallT: 835.653
Particle TRans T: 853.268
Fluid Temp: 902.778

FLUID PRESSURE BC
Particle pressure formula 1: 99.4287
Particle pressure formula 2: 99.4287
Particle pressure from rhoM: 97.3387
Particle pressure from rhoM T_trans: 99.3905
Particle overallT: 835.653
Particle TRans T: 853.268

ExecutionTime = 315.56 s  ClockTime = 376 s  Iterations: 218.403/224.403  Projected time to finish: 0.144485 min
fieldAverage fieldAverage1 write:
    Calculating averages

Time = 0.00140791


Virtual Number Density of inserted particles: 22501.2
Particle Boundary Temp: 892.876
Particle Boundary Velocity: (8.80615 -0.897127 -0.427595)    Particles inserted              = 30
    Collisions                      = 943822
    Acceptance rate                 = 0.505181

Cloud name: dsmc
    Number of dsmc particles        = 88193
    Number of molecules             = 3.52772e+22
    Mass in system                  = 0.00164039
    Average linear momentum         = (4.28892e-24 1.22232e-27 -6.55311e-26)
   |Average linear momentum|        = 4.28942e-24
    Average linear kinetic energy   = 1.61888e-20
    Average internal energy         = 1.02581e-20
    Average total energy            = 2.64469e-20
deltaT = 6.41701e-06
Mean and max Courant Numbers = 0.193865 0.196595
diagonal:  Solving for rho, Initial residual = 0, Final residual = 0, No Iterations 0
diagonal:  Solving for rhoUx, Initial residual = 0, Final residual = 0, No Iterations 0

FLUID VEL BC
Particle velocity: (0.659062 6.22153 9.68342)
Fluid velocity : (14.9807 0 0)diagonal:  Solving for rhoE, Initial residual = 0, Final residual = 0, No Iterations 0

FLUID TEMP BC
Particle overallT: 840.028
Particle TRans T: 915.633
Fluid Temp: 902.832

FLUID PRESSURE BC
Particle pressure formula 1: 107.201
Particle pressure formula 2: 107.201
Particle pressure from rhoM: 98.3119
Particle pressure from rhoM T_trans: 107.16
Particle overallT: 840.028
Particle TRans T: 915.633

ExecutionTime = 317.05 s  ClockTime = 378 s  Iterations: 219.403/224.403  Projected time to finish: 0.120421 min
fieldAverage fieldAverage1 write:
    Calculating averages

Time = 0.00141433


Virtual Number Density of inserted particles: 22497.7
Particle Boundary Temp: 905.392
Particle Boundary Velocity: (11.3513 1.24431 1.93668)    Particles inserted              = 31
    Collisions                      = 944195
    Acceptance rate                 = 0.50533

Cloud name: dsmc
    Number of dsmc particles        = 88198
    Number of molecules             = 3.52792e+22
    Mass in system                  = 0.00164048
    Average linear momentum         = (4.30656e-24 6.7516e-28 -6.54131e-26)
   |Average linear momentum|        = 4.30706e-24
    Average linear kinetic energy   = 1.61278e-20
    Average internal energy         = 1.03224e-20
    Average total energy            = 2.64502e-20
deltaT = 6.41701e-06
Mean and max Courant Numbers = 0.193873 0.196455
diagonal:  Solving for rho, Initial residual = 0, Final residual = 0, No Iterations 0
diagonal:  Solving for rhoUx, Initial residual = 0, Final residual = 0, No Iterations 0

FLUID VEL BC
Particle velocity: (-42.3457 -0.234193 1.47475)
Fluid velocity : (13.3026 0 0)diagonal:  Solving for rhoE, Initial residual = 0, Final residual = 0, No Iterations 0

FLUID TEMP BC
Particle overallT: 853.532
Particle TRans T: 869.708
Fluid Temp: 902.133

FLUID PRESSURE BC
Particle pressure formula 1: 99.4231
Particle pressure formula 2: 99.4231
Particle pressure from rhoM: 97.5365
Particle pressure from rhoM T_trans: 99.3849
Particle overallT: 853.532
Particle TRans T: 869.708

ExecutionTime = 318.64 s  ClockTime = 379 s  Iterations: 220.403/224.403  Projected time to finish: 0.0963808 min
fieldAverage fieldAverage1 write:
    Calculating averages

Time = 0.00142075


Virtual Number Density of inserted particles: 22373.7
Particle Boundary Temp: 895.648
Particle Boundary Velocity: (3.17981 -0.0468386 0.294949)    Particles inserted              = 30
    Collisions                      = 943559
    Acceptance rate                 = 0.505161

Cloud name: dsmc
    Number of dsmc particles        = 88202
    Number of molecules             = 3.52808e+22
    Mass in system                  = 0.00164056
    Average linear momentum         = (4.3218e-24 2.33641e-27 -6.54805e-26)
   |Average linear momentum|        = 4.32229e-24
    Average linear kinetic energy   = 1.61823e-20
    Average internal energy         = 1.02723e-20
    Average total energy            = 2.64546e-20
deltaT = 6.41701e-06
Mean and max Courant Numbers = 0.193872 0.196467
diagonal:  Solving for rho, Initial residual = 0, Final residual = 0, No Iterations 0
diagonal:  Solving for rhoUx, Initial residual = 0, Final residual = 0, No Iterations 0

FLUID VEL BC
Particle velocity: (-56.6997 -1.88826 -11.2984)
Fluid velocity : (14.5895 0 0)diagonal:  Solving for rhoE, Initial residual = 0, Final residual = 0, No Iterations 0

FLUID TEMP BC
Particle overallT: 882.613
Particle TRans T: 796.066
Fluid Temp: 901.518

FLUID PRESSURE BC
Particle pressure formula 1: 90.5649
Particle pressure formula 2: 90.5649
Particle pressure from rhoM: 100.372
Particle pressure from rhoM T_trans: 90.5301
Particle overallT: 882.613
Particle TRans T: 796.066

ExecutionTime = 320.14 s  ClockTime = 381 s  Iterations: 221.403/224.403  Projected time to finish: 0.0722979 min
fieldAverage fieldAverage1 write:
    Calculating averages

Time = 0.00142717


Virtual Number Density of inserted particles: 22361.8
Particle Boundary Temp: 880.428
Particle Boundary Velocity: (-0.440515 -0.377652 -2.25968)    Particles inserted              = 29
    Collisions                      = 942544
    Acceptance rate                 = 0.504604

Cloud name: dsmc
    Number of dsmc particles        = 88209
    Number of molecules             = 3.52836e+22
    Mass in system                  = 0.00164069
    Average linear momentum         = (4.33826e-24 1.82798e-27 -6.68169e-26)
   |Average linear momentum|        = 4.33877e-24
    Average linear kinetic energy   = 1.61649e-20
    Average internal energy         = 1.029e-20
    Average total energy            = 2.64549e-20
deltaT = 6.41701e-06
Mean and max Courant Numbers = 0.193872 0.19654
diagonal:  Solving for rho, Initial residual = 0, Final residual = 0, No Iterations 0
diagonal:  Solving for rhoUx, Initial residual = 0, Final residual = 0, No Iterations 0

FLUID VEL BC
Particle velocity: (-50.6823 -2.54152 -25.7433)
Fluid velocity : (18.5458 0 0)diagonal:  Solving for rhoE, Initial residual = 0, Final residual = 0, No Iterations 0

FLUID TEMP BC
Particle overallT: 922.383
Particle TRans T: 895.343
Fluid Temp: 902.057

FLUID PRESSURE BC
Particle pressure formula 1: 111.748
Particle pressure formula 2: 111.748
Particle pressure from rhoM: 115.079
Particle pressure from rhoM T_trans: 111.706
Particle overallT: 922.383
Particle TRans T: 895.343

ExecutionTime = 321.72 s  ClockTime = 382 s  Iterations: 222.403/224.403  Projected time to finish: 0.0482187 min
fieldAverage fieldAverage1 write:
    Calculating averages

Time = 0.00143358


Virtual Number Density of inserted particles: 22776.8
Particle Boundary Temp: 900.714
Particle Boundary Velocity: (2.3264 -0.508304 -5.14866)    Particles inserted              = 30
    Collisions                      = 941896
    Acceptance rate                 = 0.504309

Cloud name: dsmc
    Number of dsmc particles        = 88203
    Number of molecules             = 3.52812e+22
    Mass in system                  = 0.00164058
    Average linear momentum         = (4.35808e-24 2.31638e-28 -6.83467e-26)
   |Average linear momentum|        = 4.35861e-24
    Average linear kinetic energy   = 1.61775e-20
    Average internal energy         = 1.02814e-20
    Average total energy            = 2.64589e-20
deltaT = 6.41701e-06
Mean and max Courant Numbers = 0.193894 0.196595
diagonal:  Solving for rho, Initial residual = 0, Final residual = 0, No Iterations 0
diagonal:  Solving for rhoUx, Initial residual = 0, Final residual = 0, No Iterations 0

FLUID VEL BC
Particle velocity: (-16.6769 3.48171 -17.6879)
Fluid velocity : (15.1334 0 0)diagonal:  Solving for rhoE, Initial residual = 0, Final residual = 0, No Iterations 0

FLUID TEMP BC
Particle overallT: 940.878
Particle TRans T: 964.085
Fluid Temp: 903.168

FLUID PRESSURE BC
Particle pressure formula 1: 120.861
Particle pressure formula 2: 120.861
Particle pressure from rhoM: 117.906
Particle pressure from rhoM T_trans: 120.814
Particle overallT: 940.878
Particle TRans T: 964.085

ExecutionTime = 323.3 s  ClockTime = 384 s  Iterations: 223.403/224.403  Projected time to finish: 0.0241193 min
fieldAverage fieldAverage1 write:
    Calculating averages

Time = 0.00144


Virtual Number Density of inserted particles: 22862.5
Particle Boundary Temp: 915.351
Particle Boundary Velocity: (10.8188 0.696342 -3.53758)    Particles inserted              = 32
    Collisions                      = 940971
    Acceptance rate                 = 0.50408

Cloud name: dsmc
    Number of dsmc particles        = 88196
    Number of molecules             = 3.52784e+22
    Mass in system                  = 0.00164045
    Average linear momentum         = (4.3829e-24 -1.05448e-28 -6.87885e-26)
   |Average linear momentum|        = 4.38344e-24
    Average linear kinetic energy   = 1.61611e-20
    Average internal energy         = 1.02977e-20
    Average total energy            = 2.64588e-20
deltaT = 6.42857e-06
Mean and max Courant Numbers = 0.194263 0.197119
diagonal:  Solving for rho, Initial residual = 0, Final residual = 0, No Iterations 0
diagonal:  Solving for rhoUx, Initial residual = 0, Final residual = 0, No Iterations 0

FLUID VEL BC
Particle velocity: (-19.6341 -7.78792 0.0498678)
Fluid velocity : (8.74877 0 0)diagonal:  Solving for rhoE, Initial residual = 0, Final residual = 0, No Iterations 0

FLUID TEMP BC
Particle overallT: 921.249
Particle TRans T: 936.608
Fluid Temp: 903.955

FLUID PRESSURE BC
Particle pressure formula 1: 111.726
Particle pressure formula 2: 111.726
Particle pressure from rhoM: 109.852
Particle pressure from rhoM T_trans: 111.683
Particle overallT: 921.249
Particle TRans T: 936.608

ExecutionTime = 325.6 s  ClockTime = 386 s  Iterations: 224/224  Projected time to finish: 0 min
fieldAverage fieldAverage1 write:
    Calculating averages

    Writing average fields


Calculating dsmcFieldsMod.
    Calculating UMean field.
    Calculating translationalT field.
    Calculating internalT field.
    Calculating overallT field.
    Calculating pressure field.
    mag(UMean) max/min : 494.653 7.18748
    translationalT max/min : 1012.43 213.031
    internalT max/min : 1125.84 223.677
    overallT max/min : 1010.62 233.671
    p max/min : 136.698 6.61236
dsmcFieldsMod written.

