/*---------------------------------------------------------------------------*\
  =========                 |
  \\      /  F ield         | OpenFOAM: The Open Source CFD Toolbox
   \\    /   O peration     | Website:  https://openfoam.org
    \\  /    A nd           | Version:  7
     \\/     M anipulation  |
\*---------------------------------------------------------------------------*/
Build  : 7-1ff648926f77
Exec   : setFields -region fluid
Date   : May 13 2020
Time   : 23:20:43
Host   : "DESKTOP-KF81SG4"
PID    : 10367
I/O    : uncollated
Case   : /home/anthonygay1812/OpenFOAM/Working/finalShockTube
nProcs : 1
sigFpe : Enabling floating point exception trapping (FOAM_SIGFPE).
fileModificationChecking : Monitoring run-time modified files using timeStampMaster (fileModificationSkew 10)
allowSystemOperations : Allowing user-supplied system call operations

// * * * * * * * * * * * * * * * * * * * * * * * * * * * * * * * * * * * * * //
Create time

Create mesh fluid for time = 0

Reading setFieldsDict

Setting field default values
    Setting internal values of volVectorField U
    Setting internal values of volScalarField T
    Setting internal values of volScalarField p
Using dynamicCode for patch fluidBound on field p at line 19 in "/home/anthonygay1812/OpenFOAM/Working/finalShockTube/system/fluid/codeDict.HPCFluid"
Creating new library in "dynamicCode/HPCFluid/platforms/linux64GccDPInt32Opt/lib/libHPCFluid_8d30cc42143a9ac4c7234314992f1c53ebf76f83.so"
Invoking "wmake -s libso /home/anthonygay1812/OpenFOAM/Working/finalShockTube/dynamicCode/HPCFluid"
wmake libso /home/anthonygay1812/OpenFOAM/Working/finalShockTube/dynamicCode/HPCFluid
    ln: ./lnInclude
    wmkdep: fixedValueFvPatchFieldTemplate.C
    Ctoo: fixedValueFvPatchFieldTemplate.C
    ld: /home/anthonygay1812/OpenFOAM/Working/finalShockTube/dynamicCode/HPCFluid/../platforms/linux64GccDPInt32Opt/lib/libHPCFluid_8d30cc42143a9ac4c7234314992f1c53ebf76f83.so

Setting field region values
    Adding all cells of cellZone fluid ...
    Found matching zone fluid with 100 cells.
    Setting internal values of volVectorField U
    Setting internal values of volScalarField T
    Setting internal values of volScalarField p

End

