/*---------------------------------------------------------------------------*\
  =========                 |
  \\      /  F ield         | OpenFOAM: The Open Source CFD Toolbox
   \\    /   O peration     | Website:  https://openfoam.org
    \\  /    A nd           | Version:  7
     \\/     M anipulation  |
\*---------------------------------------------------------------------------*/
Build  : 7-1ff648926f77
Exec   : setFields
Date   : May 08 2020
Time   : 01:43:15
Host   : "DESKTOP-KF81SG4"
PID    : 16816
I/O    : uncollated
Case   : /home/anthonygay1812/OpenFOAM/tutorials/tutorials/compressible/rhoCentralFoam/shockTube
nProcs : 1
sigFpe : Enabling floating point exception trapping (FOAM_SIGFPE).
fileModificationChecking : Monitoring run-time modified files using timeStampMaster (fileModificationSkew 10)
allowSystemOperations : Allowing user-supplied system call operations

// * * * * * * * * * * * * * * * * * * * * * * * * * * * * * * * * * * * * * //
Create time

Create mesh for time = 0

Reading setFieldsDict

Setting field default values
    Setting internal values of volVectorField U
    Setting internal values of volScalarField T
    Setting internal values of volScalarField p
Using dynamicCode for patch sides on field p at line 25 in "/home/anthonygay1812/OpenFOAM/tutorials/tutorials/compressible/rhoCentralFoam/shockTube/0/p.boundaryField.sides"
Creating new library in "dynamicCode/HPCFluid/platforms/linux64GccDPInt32Opt/lib/libHPCFluid_63ac19f166ab850d826a1946c60e72e3aaae4679.so"
Invoking "wmake -s libso /home/anthonygay1812/OpenFOAM/tutorials/tutorials/compressible/rhoCentralFoam/shockTube/dynamicCode/HPCFluid"
wmake libso /home/anthonygay1812/OpenFOAM/tutorials/tutorials/compressible/rhoCentralFoam/shockTube/dynamicCode/HPCFluid
    ln: ./lnInclude
    wmkdep: fixedValueFvPatchFieldTemplate.C
    Ctoo: fixedValueFvPatchFieldTemplate.C
    ld: /home/anthonygay1812/OpenFOAM/tutorials/tutorials/compressible/rhoCentralFoam/shockTube/dynamicCode/HPCFluid/../platforms/linux64GccDPInt32Opt/lib/libHPCFluid_63ac19f166ab850d826a1946c60e72e3aaae4679.so

Setting field region values
    Adding cells with center within boxes 1((0 -1 -1) (5 1 1))
    Setting internal values of volScalarField T
    Setting internal values of volScalarField p

End

