[node003:13213] mca: base: component_find: unable to open /cm/shared/apps/openmpi/open64/64/1.10.3/lib64/openmpi/mca_mtl_psm: libpsm_infinipath.so.1: cannot open shared object file: No such file or directory (ignored)
[node003:13215] mca: base: component_find: unable to open /cm/shared/apps/openmpi/open64/64/1.10.3/lib64/openmpi/mca_mtl_psm: libpsm_infinipath.so.1: cannot open shared object file: No such file or directory (ignored)
[node003:13214] mca: base: component_find: unable to open /cm/shared/apps/openmpi/open64/64/1.10.3/lib64/openmpi/mca_mtl_psm: libpsm_infinipath.so.1: cannot open shared object file: No such file or directory (ignored)
[node003:13216] mca: base: component_find: unable to open /cm/shared/apps/openmpi/open64/64/1.10.3/lib64/openmpi/mca_mtl_psm: libpsm_infinipath.so.1: cannot open shared object file: No such file or directory (ignored)
/*---------------------------------------------------------------------------*\
  =========                 |
  \\      /  F ield         | OpenFOAM: The Open Source CFD Toolbox
   \\    /   O peration     | Website:  https://openfoam.org
    \\  /    A nd           | Version:  7
     \\/     M anipulation  |
\*---------------------------------------------------------------------------*/
Build  : 7-83cd285f0e3f
Exec   : interFoam -parallel
Date   : Mar 09 2020
Time   : 20:54:01
Host   : "node003"
PID    : 13213
I/O    : uncollated
Case   : /home/ajgay/Working/damBreak/damBreakFine
nProcs : 4
Slaves : 
3
(
"node003.13214"
"node003.13215"
"node003.13216"
)

Pstream initialized with:
    floatTransfer      : 0
    nProcsSimpleSum    : 0
    commsType          : nonBlocking
    polling iterations : 0
fileModificationChecking : Monitoring run-time modified files using timeStampMaster (fileModificationSkew 10)
allowSystemOperations : Allowing user-supplied system call operations

// * * * * * * * * * * * * * * * * * * * * * * * * * * * * * * * * * * * * * //
Create time

Create mesh for time = 0


PIMPLE: No convergence criteria found


PIMPLE: Operating solver in transient mode with 1 outer corrector
PIMPLE: Operating solver in PISO mode


Reading field p_rgh

Reading field U

Reading/calculating face flux field phi

Reading transportProperties

Selecting incompressible transport model Newtonian
Selecting incompressible transport model Newtonian
Selecting turbulence model type RAS
Selecting RAS turbulence model kEpsilon
RAS
{
    RASModel        kEpsilon;
    turbulence      on;
    printCoeffs     on;
    Cmu             0.09;
    C1              1.44;
    C2              1.92;
    C3              0;
    sigmak          1;
    sigmaEps        1.3;
}


Reading g

Reading hRef
Calculating field g.h

No MRF models present

No finite volume options present
DICPCG:  Solving for pcorr, Initial residual = 0, Final residual = 0, No Iterations 0
time step continuity errors : sum local = 0, global = 0, cumulative = 0
Courant Number mean: 0 max: 0

Starting time loop

Courant Number mean: 0 max: 0
Interface Courant Number mean: 0 max: 0
deltaT = 0.000595238
Time = 0.000595238

smoothSolver:  Solving for alpha.water, Initial residual = 0, Final residual = 0, No Iterations 0
Phase-1 volume fraction = 0.124752  Min(alpha.water) = 0  Max(alpha.water) = 1
MULES: Correcting alpha.water
MULES: Correcting alpha.water
Phase-1 volume fraction = 0.124752  Min(alpha.water) = 0  Max(alpha.water) = 1
DICPCG:  Solving for p_rgh, Initial residual = 1, Final residual = 0.048907, No Iterations 5
time step continuity errors : sum local = 0.000107673, global = -1.92761e-14, cumulative = -1.92761e-14
DICPCG:  Solving for p_rgh, Initial residual = 0.00550138, Final residual = 0.000268522, No Iterations 26
time step continuity errors : sum local = 5.71954e-06, global = -1.43938e-06, cumulative = -1.43938e-06
DICPCG:  Solving for p_rgh, Initial residual = 0.000298616, Final residual = 9.39152e-08, No Iterations 115
time step continuity errors : sum local = 5.6209e-09, global = -1.61858e-10, cumulative = -1.43954e-06
smoothSolver:  Solving for epsilon, Initial residual = 0.0251233, Final residual = 1.07503e-07, No Iterations 4
smoothSolver:  Solving for k, Initial residual = 1, Final residual = 1.86039e-07, No Iterations 6
ExecutionTime = 0.07 s  ClockTime = 0 s

Courant Number mean: 0.0002275 max: 0.00202249
Interface Courant Number mean: 0 max: 0
deltaT = 0.000705782
Time = 0.00130102

smoothSolver:  Solving for alpha.water, Initial residual = 7.58123e-06, Final residual = 1.21402e-11, No Iterations 1
Phase-1 volume fraction = 0.124752  Min(alpha.water) = 0  Max(alpha.water) = 1
MULES: Correcting alpha.water
MULES: Correcting alpha.water
Phase-1 volume fraction = 0.124752  Min(alpha.water) = -1.06663e-16  Max(alpha.water) = 1
DICPCG:  Solving for p_rgh, Initial residual = 0.000374462, Final residual = 1.61959e-05, No Iterations 18
time step continuity errors : sum local = 1.08428e-06, global = 4.66745e-07, cumulative = -9.72794e-07
DICPCG:  Solving for p_rgh, Initial residual = 4.29528e-05, Final residual = 1.88968e-06, No Iterations 67
time step continuity errors : sum local = 1.26912e-07, global = -2.74276e-08, cumulative = -1.00022e-06
DICPCG:  Solving for p_rgh, Initial residual = 1.30858e-05, Final residual = 8.81724e-08, No Iterations 90
time step continuity errors : sum local = 5.89592e-09, global = 5.40492e-10, cumulative = -9.99681e-07
smoothSolver:  Solving for epsilon, Initial residual = 0.00291076, Final residual = 1.07212e-07, No Iterations 3
smoothSolver:  Solving for k, Initial residual = 0.448281, Final residual = 7.72018e-07, No Iterations 5
ExecutionTime = 0.1 s  ClockTime = 0 s

Courant Number mean: 0.000588874 max: 0.00569526
Interface Courant Number mean: 0 max: 0
deltaT = 0.000839638
Time = 0.00214066

smoothSolver:  Solving for alpha.water, Initial residual = 1.83756e-05, Final residual = 8.05863e-11, No Iterations 1
Phase-1 volume fraction = 0.124752  Min(alpha.water) = 0  Max(alpha.water) = 1
MULES: Correcting alpha.water
MULES: Correcting alpha.water
Phase-1 volume fraction = 0.124752  Min(alpha.water) = -3.04971e-15  Max(alpha.water) = 1
DICPCG:  Solving for p_rgh, Initial residual = 0.000497671, Final residual = 2.47949e-05, No Iterations 14
time step continuity errors : sum local = 2.19757e-06, global = -3.51364e-09, cumulative = -1.00319e-06
DICPCG:  Solving for p_rgh, Initial residual = 4.9373e-05, Final residual = 2.44551e-06, No Iterations 19
time step continuity errors : sum local = 2.17828e-07, global = 5.36251e-09, cumulative = -9.97832e-07
DICPCG:  Solving for p_rgh, Initial residual = 1.27854e-05, Final residual = 9.54708e-08, No Iterations 83
time step continuity errors : sum local = 8.49537e-09, global = -5.08519e-10, cumulative = -9.98341e-07
smoothSolver:  Solving for epsilon, Initial residual = 0.00312085, Final residual = 2.04202e-07, No Iterations 3
smoothSolver:  Solving for k, Initial residual = 0.257133, Final residual = 1.65067e-07, No Iterations 6
ExecutionTime = 0.12 s  ClockTime = 0 s

Courant Number mean: 0.00114379 max: 0.0118157
Interface Courant Number mean: 0 max: 0
deltaT = 0.00099707
Time = 0.00313773

smoothSolver:  Solving for alpha.water, Initial residual = 3.49076e-05, Final residual = 3.73661e-10, No Iterations 1
Phase-1 volume fraction = 0.124752  Min(alpha.water) = -1.38156e-78  Max(alpha.water) = 1
MULES: Correcting alpha.water
MULES: Correcting alpha.water
Phase-1 volume fraction = 0.124752  Min(alpha.water) = -3.53703e-14  Max(alpha.water) = 1
DICPCG:  Solving for p_rgh, Initial residual = 0.000803434, Final residual = 3.61093e-05, No Iterations 12
time step continuity errors : sum local = 4.22156e-06, global = -1.42189e-08, cumulative = -1.01256e-06
DICPCG:  Solving for p_rgh, Initial residual = 6.13427e-05, Final residual = 2.61042e-06, No Iterations 20
time step continuity errors : sum local = 3.06549e-07, global = 5.86398e-10, cumulative = -1.01197e-06
DICPCG:  Solving for p_rgh, Initial residual = 1.60971e-05, Final residual = 8.98463e-08, No Iterations 86
time step continuity errors : sum local = 1.05476e-08, global = -6.52249e-10, cumulative = -1.01263e-06
smoothSolver:  Solving for epsilon, Initial residual = 0.00331512, Final residual = 4.03308e-07, No Iterations 3
smoothSolver:  Solving for k, Initial residual = 0.188454, Final residual = 3.26633e-07, No Iterations 6
ExecutionTime = 0.15 s  ClockTime = 0 s

Courant Number mean: 0.00196835 max: 0.0210446
Interface Courant Number mean: 3.20335e-06 max: 0.0210446
deltaT = 0.00117156
Time = 0.00430928

smoothSolver:  Solving for alpha.water, Initial residual = 5.84636e-05, Final residual = 1.41724e-09, No Iterations 1
Phase-1 volume fraction = 0.124752  Min(alpha.water) = -5.04774e-72  Max(alpha.water) = 1
MULES: Correcting alpha.water
MULES: Correcting alpha.water
Phase-1 volume fraction = 0.124752  Min(alpha.water) = -2.80133e-13  Max(alpha.water) = 1
DICPCG:  Solving for p_rgh, Initial residual = 0.00115123, Final residual = 5.22414e-05, No Iterations 10
time step continuity errors : sum local = 7.88596e-06, global = -1.46652e-08, cumulative = -1.02729e-06
DICPCG:  Solving for p_rgh, Initial residual = 7.78892e-05, Final residual = 3.51228e-06, No Iterations 27
time step continuity errors : sum local = 5.32074e-07, global = -1.77752e-08, cumulative = -1.04507e-06
DICPCG:  Solving for p_rgh, Initial residual = 2.09232e-05, Final residual = 7.94259e-08, No Iterations 90
time step continuity errors : sum local = 1.20488e-08, global = 4.67266e-10, cumulative = -1.0446e-06
smoothSolver:  Solving for epsilon, Initial residual = 0.0034556, Final residual = 7.74854e-07, No Iterations 3
smoothSolver:  Solving for k, Initial residual = 0.152267, Final residual = 6.68813e-07, No Iterations 6
ExecutionTime = 0.18 s  ClockTime = 0 s

Courant Number mean: 0.00313604 max: 0.0337627
Interface Courant Number mean: 1.6752e-05 max: 0.0337627
deltaT = 0.00138457
Time = 0.00569385

smoothSolver:  Solving for alpha.water, Initial residual = 9.26184e-05, Final residual = 4.86261e-09, No Iterations 1
Phase-1 volume fraction = 0.124752  Min(alpha.water) = -2.22134e-116  Max(alpha.water) = 1
MULES: Correcting alpha.water
MULES: Correcting alpha.water
Phase-1 volume fraction = 0.124752  Min(alpha.water) = -1.71755e-12  Max(alpha.water) = 1
DICPCG:  Solving for p_rgh, Initial residual = 0.0015591, Final residual = 7.62085e-05, No Iterations 1
time step continuity errors : sum local = 1.49122e-05, global = 3.61117e-08, cumulative = -1.00849e-06
DICPCG:  Solving for p_rgh, Initial residual = 9.56227e-05, Final residual = 4.48139e-06, No Iterations 27
time step continuity errors : sum local = 8.76656e-07, global = -1.76475e-08, cumulative = -1.02613e-06
DICPCG:  Solving for p_rgh, Initial residual = 3.32533e-05, Final residual = 8.53109e-08, No Iterations 94
time step continuity errors : sum local = 1.68249e-08, global = 6.43962e-10, cumulative = -1.02549e-06
smoothSolver:  Solving for epsilon, Initial residual = 0.00358444, Final residual = 2.02771e-07, No Iterations 4
smoothSolver:  Solving for k, Initial residual = 0.1316, Final residual = 3.3923e-07, No Iterations 7
ExecutionTime = 0.2 s  ClockTime = 0 s

Courant Number mean: 0.00483758 max: 0.0512804
Interface Courant Number mean: 6.57132e-05 max: 0.0512804
deltaT = 0.00164097
Time = 0.00733482

smoothSolver:  Solving for alpha.water, Initial residual = 0.000141349, Final residual = 2.8585e-13, No Iterations 2
Phase-1 volume fraction = 0.124752  Min(alpha.water) = 0  Max(alpha.water) = 1
MULES: Correcting alpha.water
MULES: Correcting alpha.water
Phase-1 volume fraction = 0.124752  Min(alpha.water) = -8.06762e-12  Max(alpha.water) = 1
DICPCG:  Solving for p_rgh, Initial residual = 0.00199155, Final residual = 9.83468e-05, No Iterations 1
time step continuity errors : sum local = 2.49284e-05, global = 3.92028e-08, cumulative = -9.86287e-07
DICPCG:  Solving for p_rgh, Initial residual = 0.000121003, Final residual = 5.09888e-06, No Iterations 27
time step continuity errors : sum local = 1.29187e-06, global = -4.18543e-08, cumulative = -1.02814e-06
DICPCG:  Solving for p_rgh, Initial residual = 4.20134e-05, Final residual = 8.13534e-08, No Iterations 95
time step continuity errors : sum local = 2.07985e-08, global = 7.88538e-10, cumulative = -1.02735e-06
smoothSolver:  Solving for epsilon, Initial residual = 0.00368579, Final residual = 4.77772e-07, No Iterations 4
smoothSolver:  Solving for k, Initial residual = 0.118663, Final residual = 8.76812e-07, No Iterations 7
ExecutionTime = 0.22 s  ClockTime = 0 s

Courant Number mean: 0.00727588 max: 0.0748868
Interface Courant Number mean: 0.000118431 max: 0.0748868
deltaT = 0.00193933
Time = 0.00927415

smoothSolver:  Solving for alpha.water, Initial residual = 0.000209313, Final residual = 2.92885e-12, No Iterations 2
Phase-1 volume fraction = 0.124752  Min(alpha.water) = 0  Max(alpha.water) = 1
MULES: Correcting alpha.water
MULES: Correcting alpha.water
Phase-1 volume fraction = 0.124752  Min(alpha.water) = -3.01547e-11  Max(alpha.water) = 1
DICPCG:  Solving for p_rgh, Initial residual = 0.00243877, Final residual = 5.6148e-05, No Iterations 2
time step continuity errors : sum local = 1.82659e-05, global = 4.05217e-08, cumulative = -9.86832e-07
DICPCG:  Solving for p_rgh, Initial residual = 7.58952e-05, Final residual = 3.49392e-06, No Iterations 28
time step continuity errors : sum local = 1.13592e-06, global = -9.25734e-08, cumulative = -1.0794e-06
DICPCG:  Solving for p_rgh, Initial residual = 3.08722e-05, Final residual = 7.75333e-08, No Iterations 95
time step continuity errors : sum local = 2.54529e-08, global = 5.63289e-10, cumulative = -1.07884e-06
smoothSolver:  Solving for epsilon, Initial residual = 0.00392846, Final residual = 2.14955e-07, No Iterations 5
smoothSolver:  Solving for k, Initial residual = 0.109405, Final residual = 6.5109e-07, No Iterations 8
ExecutionTime = 0.24 s  ClockTime = 0 s

Courant Number mean: 0.0106629 max: 0.105782
Interface Courant Number mean: 0.000199099 max: 0.105781
deltaT = 0.00226255
Time = 0.0115367

smoothSolver:  Solving for alpha.water, Initial residual = 0.000299484, Final residual = 1.99157e-11, No Iterations 2
Phase-1 volume fraction = 0.124752  Min(alpha.water) = 0  Max(alpha.water) = 1
MULES: Correcting alpha.water
MULES: Correcting alpha.water
Phase-1 volume fraction = 0.124752  Min(alpha.water) = -9.08924e-11  Max(alpha.water) = 1
DICPCG:  Solving for p_rgh, Initial residual = 0.00288934, Final residual = 5.86403e-05, No Iterations 2
time step continuity errors : sum local = 2.39203e-05, global = 4.87951e-08, cumulative = -1.03005e-06
DICPCG:  Solving for p_rgh, Initial residual = 7.96975e-05, Final residual = 3.27473e-06, No Iterations 29
time step continuity errors : sum local = 1.33469e-06, global = -1.58273e-07, cumulative = -1.18832e-06
DICPCG:  Solving for p_rgh, Initial residual = 3.39201e-05, Final residual = 9.70598e-08, No Iterations 95
time step continuity errors : sum local = 3.99776e-08, global = 2.93534e-11, cumulative = -1.18829e-06
smoothSolver:  Solving for epsilon, Initial residual = 0.00417111, Final residual = 5.17021e-07, No Iterations 5
smoothSolver:  Solving for k, Initial residual = 0.101727, Final residual = 5.45652e-07, No Iterations 9
ExecutionTime = 0.26 s  ClockTime = 0 s

Courant Number mean: 0.0151153 max: 0.148634
Interface Courant Number mean: 0.000303937 max: 0.144239
deltaT = 0.00256422
Time = 0.0141009

smoothSolver:  Solving for alpha.water, Initial residual = 0.000408682, Final residual = 1.16988e-10, No Iterations 2
Phase-1 volume fraction = 0.124752  Min(alpha.water) = 0  Max(alpha.water) = 1
MULES: Correcting alpha.water
MULES: Correcting alpha.water
Phase-1 volume fraction = 0.124752  Min(alpha.water) = -2.23524e-10  Max(alpha.water) = 1
DICPCG:  Solving for p_rgh, Initial residual = 0.00334144, Final residual = 6.37513e-05, No Iterations 2
time step continuity errors : sum local = 3.11815e-05, global = 6.20158e-08, cumulative = -1.12627e-06
DICPCG:  Solving for p_rgh, Initial residual = 8.81147e-05, Final residual = 4.15796e-06, No Iterations 28
time step continuity errors : sum local = 2.03135e-06, global = -1.95129e-07, cumulative = -1.3214e-06
DICPCG:  Solving for p_rgh, Initial residual = 3.71919e-05, Final residual = 7.84091e-08, No Iterations 96
time step continuity errors : sum local = 3.87395e-08, global = -2.56022e-10, cumulative = -1.32166e-06
smoothSolver:  Solving for epsilon, Initial residual = 0.0042738, Final residual = 2.68538e-07, No Iterations 6
smoothSolver:  Solving for k, Initial residual = 0.0936724, Final residual = 4.34644e-07, No Iterations 10
ExecutionTime = 0.28 s  ClockTime = 0 s

Courant Number mean: 0.0204142 max: 0.199081
Interface Courant Number mean: 0.000427699 max: 0.186589
deltaT = 0.00299159
Time = 0.0170925

smoothSolver:  Solving for alpha.water, Initial residual = 0.000564047, Final residual = 6.17154e-10, No Iterations 2
Phase-1 volume fraction = 0.124752  Min(alpha.water) = 0  Max(alpha.water) = 1
MULES: Correcting alpha.water
MULES: Correcting alpha.water
Phase-1 volume fraction = 0.124752  Min(alpha.water) = -1.44745e-09  Max(alpha.water) = 1
DICPCG:  Solving for p_rgh, Initial residual = 0.00397128, Final residual = 7.49759e-05, No Iterations 2
time step continuity errors : sum local = 4.56394e-05, global = 6.68214e-08, cumulative = -1.25484e-06
DICPCG:  Solving for p_rgh, Initial residual = 0.000103625, Final residual = 4.67135e-06, No Iterations 28
time step continuity errors : sum local = 2.83867e-06, global = -3.09151e-07, cumulative = -1.56399e-06
DICPCG:  Solving for p_rgh, Initial residual = 4.22223e-05, Final residual = 9.28263e-08, No Iterations 96
time step continuity errors : sum local = 5.71407e-08, global = -1.30657e-09, cumulative = -1.5653e-06
smoothSolver:  Solving for epsilon, Initial residual = 0.00506184, Final residual = 6.97782e-07, No Iterations 6
smoothSolver:  Solving for k, Initial residual = 0.090508, Final residual = 5.14712e-07, No Iterations 11
ExecutionTime = 0.3 s  ClockTime = 0 s

Courant Number mean: 0.028011 max: 0.259663
Interface Courant Number mean: 0.000632359 max: 0.259663
deltaT = 0.00329075
Time = 0.0203833

smoothSolver:  Solving for alpha.water, Initial residual = 0.000725342, Final residual = 1.91001e-09, No Iterations 2
Phase-1 volume fraction = 0.124752  Min(alpha.water) = 0  Max(alpha.water) = 1
MULES: Correcting alpha.water
MULES: Correcting alpha.water
Phase-1 volume fraction = 0.124752  Min(alpha.water) = -7.25819e-09  Max(alpha.water) = 1
DICPCG:  Solving for p_rgh, Initial residual = 0.00466798, Final residual = 8.67836e-05, No Iterations 2
time step continuity errors : sum local = 6.05053e-05, global = 8.49796e-08, cumulative = -1.48032e-06
DICPCG:  Solving for p_rgh, Initial residual = 0.00011782, Final residual = 4.8783e-06, No Iterations 28
time step continuity errors : sum local = 3.39283e-06, global = -3.51106e-07, cumulative = -1.83142e-06
DICPCG:  Solving for p_rgh, Initial residual = 4.65853e-05, Final residual = 8.17664e-08, No Iterations 97
time step continuity errors : sum local = 5.76616e-08, global = -2.46282e-09, cumulative = -1.83389e-06
smoothSolver:  Solving for epsilon, Initial residual = 0.00589348, Final residual = 4.06264e-07, No Iterations 7
smoothSolver:  Solving for k, Initial residual = 0.0836514, Final residual = 4.25606e-07, No Iterations 12
ExecutionTime = 0.32 s  ClockTime = 0 s

Courant Number mean: 0.0356802 max: 0.312932
Interface Courant Number mean: 0.000833838 max: 0.312932
deltaT = 0.00370209
Time = 0.0240853

smoothSolver:  Solving for alpha.water, Initial residual = 0.000940196, Final residual = 5.93324e-09, No Iterations 2
Phase-1 volume fraction = 0.124752  Min(alpha.water) = 0  Max(alpha.water) = 1
MULES: Correcting alpha.water
MULES: Correcting alpha.water
Phase-1 volume fraction = 0.124752  Min(alpha.water) = -2.74047e-08  Max(alpha.water) = 1
DICPCG:  Solving for p_rgh, Initial residual = 0.00577073, Final residual = 0.000105391, No Iterations 2
time step continuity errors : sum local = 8.65842e-05, global = 8.10579e-08, cumulative = -1.75283e-06
DICPCG:  Solving for p_rgh, Initial residual = 0.000142183, Final residual = 5.84614e-06, No Iterations 28
time step continuity errors : sum local = 4.78545e-06, global = -5.3383e-07, cumulative = -2.28666e-06
DICPCG:  Solving for p_rgh, Initial residual = 5.464e-05, Final residual = 9.31583e-08, No Iterations 97
time step continuity errors : sum local = 7.74884e-08, global = -4.4566e-09, cumulative = -2.29111e-06
smoothSolver:  Solving for epsilon, Initial residual = 0.00683283, Final residual = 9.01614e-07, No Iterations 7
smoothSolver:  Solving for k, Initial residual = 0.080523, Final residual = 4.84108e-07, No Iterations 13
ExecutionTime = 0.34 s  ClockTime = 0 s

Courant Number mean: 0.0459805 max: 0.379772
Interface Courant Number mean: 0.00111583 max: 0.379772
deltaT = 0.00431911
Time = 0.0284045

smoothSolver:  Solving for alpha.water, Initial residual = 0.00125049, Final residual = 9.79972e-12, No Iterations 3
Phase-1 volume fraction = 0.124752  Min(alpha.water) = 0  Max(alpha.water) = 1
MULES: Correcting alpha.water
MULES: Correcting alpha.water
Phase-1 volume fraction = 0.124752  Min(alpha.water) = -8.96866e-08  Max(alpha.water) = 1
DICPCG:  Solving for p_rgh, Initial residual = 0.00770297, Final residual = 0.000136988, No Iterations 2
time step continuity errors : sum local = 0.000138921, global = 1.69066e-07, cumulative = -2.12205e-06
DICPCG:  Solving for p_rgh, Initial residual = 0.000184767, Final residual = 7.22235e-06, No Iterations 28
time step continuity errors : sum local = 7.28229e-06, global = -7.82121e-07, cumulative = -2.90417e-06
DICPCG:  Solving for p_rgh, Initial residual = 6.79517e-05, Final residual = 9.75668e-08, No Iterations 98
time step continuity errors : sum local = 1.00285e-07, global = -7.62572e-09, cumulative = -2.9118e-06
smoothSolver:  Solving for epsilon, Initial residual = 0.00802622, Final residual = 9.75067e-07, No Iterations 8
smoothSolver:  Solving for k, Initial residual = 0.081277, Final residual = 8.47257e-07, No Iterations 14
ExecutionTime = 0.36 s  ClockTime = 0 s

Courant Number mean: 0.0610506 max: 0.476342
Interface Courant Number mean: 0.00150507 max: 0.476342
deltaT = 0.00431911
Time = 0.0327236

smoothSolver:  Solving for alpha.water, Initial residual = 0.00141575, Final residual = 4.00962e-11, No Iterations 3
Phase-1 volume fraction = 0.124752  Min(alpha.water) = 0  Max(alpha.water) = 1
MULES: Correcting alpha.water
MULES: Correcting alpha.water
Phase-1 volume fraction = 0.124752  Min(alpha.water) = -1.61517e-07  Max(alpha.water) = 1
DICPCG:  Solving for p_rgh, Initial residual = 0.0093379, Final residual = 0.000158713, No Iterations 2
time step continuity errors : sum local = 0.000161851, global = 1.51145e-07, cumulative = -2.76065e-06
DICPCG:  Solving for p_rgh, Initial residual = 0.000213755, Final residual = 9.11812e-06, No Iterations 27
time step continuity errors : sum local = 9.22737e-06, global = -7.50693e-07, cumulative = -3.51134e-06
DICPCG:  Solving for p_rgh, Initial residual = 7.64711e-05, Final residual = 8.77956e-08, No Iterations 70
time step continuity errors : sum local = 9.05948e-08, global = -1.00744e-08, cumulative = -3.52142e-06
smoothSolver:  Solving for epsilon, Initial residual = 0.0082292, Final residual = 4.45525e-07, No Iterations 9
smoothSolver:  Solving for k, Initial residual = 0.0715913, Final residual = 8.36286e-07, No Iterations 14
ExecutionTime = 0.38 s  ClockTime = 0 s

Courant Number mean: 0.0684701 max: 0.509712
Interface Courant Number mean: 0.0018127 max: 0.509712
deltaT = 0.00431911
Time = 0.0370427

smoothSolver:  Solving for alpha.water, Initial residual = 0.00158104, Final residual = 9.83629e-11, No Iterations 3
Phase-1 volume fraction = 0.124752  Min(alpha.water) = 0  Max(alpha.water) = 1
MULES: Correcting alpha.water
MULES: Correcting alpha.water
Phase-1 volume fraction = 0.124752  Min(alpha.water) = -3.09911e-07  Max(alpha.water) = 1
DICPCG:  Solving for p_rgh, Initial residual = 0.0110684, Final residual = 0.000189496, No Iterations 2
time step continuity errors : sum local = 0.000193715, global = 1.43318e-07, cumulative = -3.3781e-06
DICPCG:  Solving for p_rgh, Initial residual = 0.000252565, Final residual = 9.83881e-06, No Iterations 27
time step continuity errors : sum local = 9.96076e-06, global = -9.02019e-07, cumulative = -4.28012e-06
DICPCG:  Solving for p_rgh, Initial residual = 8.56214e-05, Final residual = 9.8229e-08, No Iterations 98
time step continuity errors : sum local = 1.0157e-07, global = -8.49527e-09, cumulative = -4.28861e-06
smoothSolver:  Solving for epsilon, Initial residual = 0.00827911, Final residual = 5.16642e-07, No Iterations 9
smoothSolver:  Solving for k, Initial residual = 0.064667, Final residual = 8.59061e-07, No Iterations 14
ExecutionTime = 0.4 s  ClockTime = 0 s

Courant Number mean: 0.0758922 max: 0.54442
Interface Courant Number mean: 0.00240663 max: 0.54442
deltaT = 0.00431911
Time = 0.0413618

smoothSolver:  Solving for alpha.water, Initial residual = 0.0017446, Final residual = 1.83031e-10, No Iterations 3
Phase-1 volume fraction = 0.124752  Min(alpha.water) = 0  Max(alpha.water) = 1
MULES: Correcting alpha.water
MULES: Correcting alpha.water
Phase-1 volume fraction = 0.124752  Min(alpha.water) = -5.17786e-07  Max(alpha.water) = 1
DICPCG:  Solving for p_rgh, Initial residual = 0.0129357, Final residual = 0.000228982, No Iterations 2
time step continuity errors : sum local = 0.000234157, global = 2.41338e-07, cumulative = -4.04728e-06
DICPCG:  Solving for p_rgh, Initial residual = 0.000305647, Final residual = 1.15523e-05, No Iterations 27
time step continuity errors : sum local = 1.16743e-05, global = -7.04034e-07, cumulative = -4.75131e-06
DICPCG:  Solving for p_rgh, Initial residual = 9.94358e-05, Final residual = 9.80687e-08, No Iterations 72
time step continuity errors : sum local = 1.01388e-07, global = 2.46984e-08, cumulative = -4.72661e-06
smoothSolver:  Solving for epsilon, Initial residual = 0.00842813, Final residual = 6.13834e-07, No Iterations 9
smoothSolver:  Solving for k, Initial residual = 0.059586, Final residual = 9.12893e-07, No Iterations 14
ExecutionTime = 0.42 s  ClockTime = 0 s

Courant Number mean: 0.0833038 max: 0.568496
Interface Courant Number mean: 0.00276935 max: 0.568496
deltaT = 0.00431911
Time = 0.0456809

smoothSolver:  Solving for alpha.water, Initial residual = 0.00190821, Final residual = 3.06363e-10, No Iterations 3
Phase-1 volume fraction = 0.124752  Min(alpha.water) = 0  Max(alpha.water) = 1
MULES: Correcting alpha.water
MULES: Correcting alpha.water
Phase-1 volume fraction = 0.124752  Min(alpha.water) = -7.85984e-07  Max(alpha.water) = 1
DICPCG:  Solving for p_rgh, Initial residual = 0.0148454, Final residual = 0.000283861, No Iterations 2
time step continuity errors : sum local = 0.000289591, global = 1.82233e-07, cumulative = -4.54438e-06
DICPCG:  Solving for p_rgh, Initial residual = 0.000374213, Final residual = 1.36821e-05, No Iterations 27
time step continuity errors : sum local = 1.37634e-05, global = -7.52343e-07, cumulative = -5.29672e-06
DICPCG:  Solving for p_rgh, Initial residual = 0.000117071, Final residual = 9.54201e-08, No Iterations 102
time step continuity errors : sum local = 9.83278e-08, global = -7.68689e-09, cumulative = -5.30441e-06
smoothSolver:  Solving for epsilon, Initial residual = 0.00865429, Final residual = 7.41743e-07, No Iterations 9
smoothSolver:  Solving for k, Initial residual = 0.0556874, Final residual = 9.94669e-07, No Iterations 14
ExecutionTime = 0.44 s  ClockTime = 0 s

Courant Number mean: 0.0906893 max: 0.594504
Interface Courant Number mean: 0.00306845 max: 0.594504
deltaT = 0.00431911
Time = 0.05

smoothSolver:  Solving for alpha.water, Initial residual = 0.00207014, Final residual = 4.48998e-10, No Iterations 3
Phase-1 volume fraction = 0.124752  Min(alpha.water) = -1.08571e-07  Max(alpha.water) = 1
MULES: Correcting alpha.water
MULES: Correcting alpha.water
Phase-1 volume fraction = 0.124752  Min(alpha.water) = -1.09458e-06  Max(alpha.water) = 1
DICPCG:  Solving for p_rgh, Initial residual = 0.016975, Final residual = 0.000355847, No Iterations 2
time step continuity errors : sum local = 0.000361144, global = 1.50231e-07, cumulative = -5.15418e-06
DICPCG:  Solving for p_rgh, Initial residual = 0.000465526, Final residual = 1.66332e-05, No Iterations 27
time step continuity errors : sum local = 1.66065e-05, global = -5.19307e-07, cumulative = -5.67348e-06
DICPCG:  Solving for p_rgh, Initial residual = 0.000145431, Final residual = 9.8857e-08, No Iterations 74
time step continuity errors : sum local = 1.01246e-07, global = 2.55063e-08, cumulative = -5.64798e-06
smoothSolver:  Solving for epsilon, Initial residual = 0.00887371, Final residual = 9.05854e-07, No Iterations 9
smoothSolver:  Solving for k, Initial residual = 0.0526915, Final residual = 5.59131e-07, No Iterations 15
ExecutionTime = 0.48 s  ClockTime = 0 s

Courant Number mean: 0.0980597 max: 0.614768
Interface Courant Number mean: 0.00348278 max: 0.614768
deltaT = 0.005
Time = 0.055

smoothSolver:  Solving for alpha.water, Initial residual = 0.00258001, Final residual = 1.57287e-09, No Iterations 3
Phase-1 volume fraction = 0.124752  Min(alpha.water) = -9.42439e-08  Max(alpha.water) = 1
MULES: Correcting alpha.water
MULES: Correcting alpha.water
Phase-1 volume fraction = 0.124752  Min(alpha.water) = -2.5986e-06  Max(alpha.water) = 1
DICPCG:  Solving for p_rgh, Initial residual = 0.0208018, Final residual = 0.000518935, No Iterations 2
time step continuity errors : sum local = 0.000638289, global = 1.70118e-07, cumulative = -5.47786e-06
DICPCG:  Solving for p_rgh, Initial residual = 0.000702718, Final residual = 2.72712e-05, No Iterations 27
time step continuity errors : sum local = 3.29378e-05, global = -2.5106e-07, cumulative = -5.72892e-06
DICPCG:  Solving for p_rgh, Initial residual = 0.000231719, Final residual = 8.94563e-08, No Iterations 109
time step continuity errors : sum local = 1.11423e-07, global = -6.72054e-09, cumulative = -5.73564e-06
smoothSolver:  Solving for epsilon, Initial residual = 0.0103207, Final residual = 6.43203e-07, No Iterations 11
smoothSolver:  Solving for k, Initial residual = 0.0575576, Final residual = 6.72633e-07, No Iterations 17
ExecutionTime = 0.51 s  ClockTime = 0 s

Courant Number mean: 0.122618 max: 0.77522
Interface Courant Number mean: 0.00459711 max: 0.733409
deltaT = 0.005625
Time = 0.060625

smoothSolver:  Solving for alpha.water, Initial residual = 0.00311678, Final residual = 4.93298e-09, No Iterations 3
Phase-1 volume fraction = 0.124752  Min(alpha.water) = -7.93098e-08  Max(alpha.water) = 1
MULES: Correcting alpha.water
MULES: Correcting alpha.water
Phase-1 volume fraction = 0.124752  Min(alpha.water) = -5.66032e-06  Max(alpha.water) = 1
DICPCG:  Solving for p_rgh, Initial residual = 0.0368089, Final residual = 0.000705445, No Iterations 2
time step continuity errors : sum local = 0.00105183, global = -2.70383e-07, cumulative = -6.00602e-06
DICPCG:  Solving for p_rgh, Initial residual = 0.000924784, Final residual = 3.84808e-05, No Iterations 26
time step continuity errors : sum local = 5.54844e-05, global = 1.37024e-06, cumulative = -4.63578e-06
DICPCG:  Solving for p_rgh, Initial residual = 0.00030355, Final residual = 9.10956e-08, No Iterations 114
time step continuity errors : sum local = 1.3567e-07, global = 2.07215e-09, cumulative = -4.63371e-06
smoothSolver:  Solving for epsilon, Initial residual = 0.0117497, Final residual = 9.47751e-07, No Iterations 12
smoothSolver:  Solving for k, Initial residual = 0.0608172, Final residual = 7.39925e-07, No Iterations 19
ExecutionTime = 0.53 s  ClockTime = 0 s

Courant Number mean: 0.148563 max: 0.953146
Interface Courant Number mean: 0.00601559 max: 0.856681
deltaT = 0.005625
Time = 0.06625

smoothSolver:  Solving for alpha.water, Initial residual = 0.00334036, Final residual = 7.58543e-09, No Iterations 3
Phase-1 volume fraction = 0.124752  Min(alpha.water) = -6.54285e-08  Max(alpha.water) = 1
MULES: Correcting alpha.water
MULES: Correcting alpha.water
Phase-1 volume fraction = 0.124752  Min(alpha.water) = -7.66787e-06  Max(alpha.water) = 1.00002
DICPCG:  Solving for p_rgh, Initial residual = 0.02539, Final residual = 0.000498463, No Iterations 2
time step continuity errors : sum local = 0.000733733, global = -1.71966e-06, cumulative = -6.35337e-06
DICPCG:  Solving for p_rgh, Initial residual = 0.000673868, Final residual = 2.75983e-05, No Iterations 26
time step continuity errors : sum local = 3.96857e-05, global = -9.7145e-08, cumulative = -6.45051e-06
DICPCG:  Solving for p_rgh, Initial residual = 0.000225133, Final residual = 9.52284e-08, No Iterations 112
time step continuity errors : sum local = 1.41365e-07, global = -7.96597e-10, cumulative = -6.45131e-06
smoothSolver:  Solving for epsilon, Initial residual = 0.0120969, Final residual = 6.26059e-07, No Iterations 13
smoothSolver:  Solving for k, Initial residual = 0.0578419, Final residual = 8.54055e-07, No Iterations 19
ExecutionTime = 0.55 s  ClockTime = 0 s

Courant Number mean: 0.159089 max: 1.03311
Interface Courant Number mean: 0.00675705 max: 0.888489
deltaT = 0.00482143
Time = 0.0710714

smoothSolver:  Solving for alpha.water, Initial residual = 0.00305692, Final residual = 4.57751e-09, No Iterations 3
Phase-1 volume fraction = 0.124752  Min(alpha.water) = -5.4554e-08  Max(alpha.water) = 1
MULES: Correcting alpha.water
MULES: Correcting alpha.water
Phase-1 volume fraction = 0.124752  Min(alpha.water) = -6.02857e-06  Max(alpha.water) = 1.00004
DICPCG:  Solving for p_rgh, Initial residual = 0.0205041, Final residual = 0.000472689, No Iterations 2
time step continuity errors : sum local = 0.000564093, global = -8.17777e-07, cumulative = -7.26909e-06
DICPCG:  Solving for p_rgh, Initial residual = 0.000623549, Final residual = 2.79068e-05, No Iterations 26
time step continuity errors : sum local = 3.2625e-05, global = 1.40974e-06, cumulative = -5.85935e-06
DICPCG:  Solving for p_rgh, Initial residual = 0.000203474, Final residual = 9.69558e-08, No Iterations 111
time step continuity errors : sum local = 1.16574e-07, global = -1.64507e-09, cumulative = -5.86099e-06
smoothSolver:  Solving for epsilon, Initial residual = 0.0109711, Final residual = 9.9632e-07, No Iterations 11
smoothSolver:  Solving for k, Initial residual = 0.0479745, Final residual = 7.2696e-07, No Iterations 17
ExecutionTime = 0.57 s  ClockTime = 0 s

Courant Number mean: 0.144706 max: 0.943956
Interface Courant Number mean: 0.00610954 max: 0.779874
deltaT = 0.00482143
Time = 0.0758929

smoothSolver:  Solving for alpha.water, Initial residual = 0.0032352, Final residual = 6.35383e-09, No Iterations 3
Phase-1 volume fraction = 0.124752  Min(alpha.water) = -4.48626e-08  Max(alpha.water) = 1
MULES: Correcting alpha.water
MULES: Correcting alpha.water
Phase-1 volume fraction = 0.124752  Min(alpha.water) = -7.44592e-06  Max(alpha.water) = 1.00018
DICPCG:  Solving for p_rgh, Initial residual = 0.0218262, Final residual = 0.000648786, No Iterations 2
time step continuity errors : sum local = 0.000777582, global = -1.61544e-06, cumulative = -7.47643e-06
DICPCG:  Solving for p_rgh, Initial residual = 0.00084165, Final residual = 4.19313e-05, No Iterations 26
time step continuity errors : sum local = 4.92218e-05, global = 6.85328e-07, cumulative = -6.7911e-06
DICPCG:  Solving for p_rgh, Initial residual = 0.000275123, Final residual = 9.24287e-08, No Iterations 114
time step continuity errors : sum local = 1.11995e-07, global = 1.02666e-09, cumulative = -6.79008e-06
smoothSolver:  Solving for epsilon, Initial residual = 0.0113939, Final residual = 5.92973e-07, No Iterations 12
smoothSolver:  Solving for k, Initial residual = 0.0465508, Final residual = 8.23534e-07, No Iterations 17
ExecutionTime = 0.6 s  ClockTime = 0 s

Courant Number mean: 0.152989 max: 1.0038
Interface Courant Number mean: 0.00666297 max: 0.789892
deltaT = 0.00401786
Time = 0.0799107

smoothSolver:  Solving for alpha.water, Initial residual = 0.00284035, Final residual = 3.10049e-09, No Iterations 3
Phase-1 volume fraction = 0.124752  Min(alpha.water) = -2.77915e-07  Max(alpha.water) = 1
MULES: Correcting alpha.water
MULES: Correcting alpha.water
Phase-1 volume fraction = 0.124752  Min(alpha.water) = -5.8953e-06  Max(alpha.water) = 1.00001
DICPCG:  Solving for p_rgh, Initial residual = 0.0280282, Final residual = 0.000566985, No Iterations 2
time step continuity errors : sum local = 0.00054135, global = -1.15608e-06, cumulative = -7.94615e-06
DICPCG:  Solving for p_rgh, Initial residual = 0.000740444, Final residual = 3.24965e-05, No Iterations 26
time step continuity errors : sum local = 3.01953e-05, global = 1.55824e-06, cumulative = -6.38792e-06
DICPCG:  Solving for p_rgh, Initial residual = 0.000236545, Final residual = 9.37669e-08, No Iterations 112
time step continuity errors : sum local = 8.94316e-08, global = -1.18037e-09, cumulative = -6.3891e-06
smoothSolver:  Solving for epsilon, Initial residual = 0.0100139, Final residual = 8.52587e-07, No Iterations 10
smoothSolver:  Solving for k, Initial residual = 0.0379603, Final residual = 6.21775e-07, No Iterations 15
ExecutionTime = 0.62 s  ClockTime = 0 s

Courant Number mean: 0.133705 max: 0.87808
Interface Courant Number mean: 0.00593938 max: 0.673622
deltaT = 0.00401786
Time = 0.0839286

smoothSolver:  Solving for alpha.water, Initial residual = 0.00296987, Final residual = 4.08121e-09, No Iterations 3
Phase-1 volume fraction = 0.124752  Min(alpha.water) = -2.37106e-07  Max(alpha.water) = 1
MULES: Correcting alpha.water
MULES: Correcting alpha.water
Phase-1 volume fraction = 0.124752  Min(alpha.water) = -7.84792e-06  Max(alpha.water) = 1.00001
DICPCG:  Solving for p_rgh, Initial residual = 0.0284441, Final residual = 0.000590227, No Iterations 2
time step continuity errors : sum local = 0.000557846, global = -1.56476e-06, cumulative = -7.95385e-06
DICPCG:  Solving for p_rgh, Initial residual = 0.00075918, Final residual = 3.06039e-05, No Iterations 26
time step continuity errors : sum local = 2.82236e-05, global = 1.02588e-07, cumulative = -7.85127e-06
DICPCG:  Solving for p_rgh, Initial residual = 0.000234744, Final residual = 9.97301e-08, No Iterations 112
time step continuity errors : sum local = 9.4857e-08, global = -2.44154e-09, cumulative = -7.85371e-06
smoothSolver:  Solving for epsilon, Initial residual = 0.0103415, Final residual = 9.98634e-07, No Iterations 10
smoothSolver:  Solving for k, Initial residual = 0.0367199, Final residual = 6.81212e-07, No Iterations 15
ExecutionTime = 0.64 s  ClockTime = 0 s

Courant Number mean: 0.139832 max: 0.921158
Interface Courant Number mean: 0.00598887 max: 0.685057
deltaT = 0.00401786
Time = 0.0879464

smoothSolver:  Solving for alpha.water, Initial residual = 0.00309941, Final residual = 5.4964e-09, No Iterations 3
Phase-1 volume fraction = 0.124752  Min(alpha.water) = -1.99929e-07  Max(alpha.water) = 1
MULES: Correcting alpha.water
MULES: Correcting alpha.water
Phase-1 volume fraction = 0.124752  Min(alpha.water) = -9.88214e-06  Max(alpha.water) = 1.00001
DICPCG:  Solving for p_rgh, Initial residual = 0.0167965, Final residual = 0.000524294, No Iterations 2
time step continuity errors : sum local = 0.000493697, global = -7.49913e-07, cumulative = -8.60362e-06
DICPCG:  Solving for p_rgh, Initial residual = 0.000677853, Final residual = 2.82973e-05, No Iterations 27
time step continuity errors : sum local = 2.62052e-05, global = 2.01166e-06, cumulative = -6.59196e-06
DICPCG:  Solving for p_rgh, Initial residual = 0.000207636, Final residual = 9.4176e-08, No Iterations 113
time step continuity errors : sum local = 8.99886e-08, global = -2.33295e-09, cumulative = -6.59429e-06
smoothSolver:  Solving for epsilon, Initial residual = 0.010765, Final residual = 5.24743e-07, No Iterations 11
smoothSolver:  Solving for k, Initial residual = 0.0353178, Final residual = 7.35855e-07, No Iterations 15
ExecutionTime = 0.66 s  ClockTime = 0 s

Courant Number mean: 0.145932 max: 0.965302
Interface Courant Number mean: 0.00627986 max: 0.688949
deltaT = 0.00401786
Time = 0.0919643

smoothSolver:  Solving for alpha.water, Initial residual = 0.00322841, Final residual = 7.43273e-09, No Iterations 3
Phase-1 volume fraction = 0.124752  Min(alpha.water) = -1.66845e-07  Max(alpha.water) = 1
MULES: Correcting alpha.water
MULES: Correcting alpha.water
Phase-1 volume fraction = 0.124752  Min(alpha.water) = -1.12883e-05  Max(alpha.water) = 1.00002
DICPCG:  Solving for p_rgh, Initial residual = 0.0250624, Final residual = 0.000597884, No Iterations 2
time step continuity errors : sum local = 0.000573427, global = -1.48035e-06, cumulative = -8.07464e-06
DICPCG:  Solving for p_rgh, Initial residual = 0.000776006, Final residual = 3.85278e-05, No Iterations 25
time step continuity errors : sum local = 3.60393e-05, global = 7.20665e-07, cumulative = -7.35397e-06
DICPCG:  Solving for p_rgh, Initial residual = 0.000227635, Final residual = 9.68987e-08, No Iterations 113
time step continuity errors : sum local = 9.35234e-08, global = -3.1628e-09, cumulative = -7.35714e-06
smoothSolver:  Solving for epsilon, Initial residual = 0.0111783, Final residual = 6.11035e-07, No Iterations 11
smoothSolver:  Solving for k, Initial residual = 0.0338725, Final residual = 7.87476e-07, No Iterations 15
ExecutionTime = 0.68 s  ClockTime = 0 s

Courant Number mean: 0.151958 max: 1.01081
Interface Courant Number mean: 0.00650891 max: 0.707468
deltaT = 0.00267857
Time = 0.0946429

smoothSolver:  Solving for alpha.water, Initial residual = 0.00223832, Final residual = 9.5185e-10, No Iterations 3
Phase-1 volume fraction = 0.124752  Min(alpha.water) = -1.4612e-07  Max(alpha.water) = 1
MULES: Correcting alpha.water
MULES: Correcting alpha.water
Phase-1 volume fraction = 0.124752  Min(alpha.water) = -4.17953e-06  Max(alpha.water) = 1
DICPCG:  Solving for p_rgh, Initial residual = 0.0183796, Final residual = 0.000416865, No Iterations 2
time step continuity errors : sum local = 0.000225729, global = -9.65374e-07, cumulative = -8.32251e-06
DICPCG:  Solving for p_rgh, Initial residual = 0.000535342, Final residual = 2.43478e-05, No Iterations 26
time step continuity errors : sum local = 1.29496e-05, global = 8.26261e-07, cumulative = -7.49625e-06
DICPCG:  Solving for p_rgh, Initial residual = 0.000159109, Final residual = 9.53165e-08, No Iterations 108
time step continuity errors : sum local = 5.16494e-08, global = -2.66155e-09, cumulative = -7.49891e-06
smoothSolver:  Solving for epsilon, Initial residual = 0.00794112, Final residual = 5.53361e-07, No Iterations 8
smoothSolver:  Solving for k, Initial residual = 0.0219119, Final residual = 5.32173e-07, No Iterations 11
ExecutionTime = 0.71 s  ClockTime = 0 s

Courant Number mean: 0.104468 max: 0.693656
Interface Courant Number mean: 0.00449848 max: 0.475872
deltaT = 0.00267857
Time = 0.0973214

smoothSolver:  Solving for alpha.water, Initial residual = 0.00230496, Final residual = 1.17326e-09, No Iterations 3
Phase-1 volume fraction = 0.124752  Min(alpha.water) = -2.91612e-07  Max(alpha.water) = 1
MULES: Correcting alpha.water
MULES: Correcting alpha.water
Phase-1 volume fraction = 0.124752  Min(alpha.water) = -4.26936e-06  Max(alpha.water) = 1
DICPCG:  Solving for p_rgh, Initial residual = 0.0199015, Final residual = 0.000492005, No Iterations 2
time step continuity errors : sum local = 0.000265099, global = -6.47888e-07, cumulative = -8.1468e-06
DICPCG:  Solving for p_rgh, Initial residual = 0.000637371, Final residual = 2.84484e-05, No Iterations 26
time step continuity errors : sum local = 1.50512e-05, global = 3.69992e-07, cumulative = -7.77681e-06
DICPCG:  Solving for p_rgh, Initial residual = 0.000189586, Final residual = 9.60072e-08, No Iterations 110
time step continuity errors : sum local = 5.22094e-08, global = -2.265e-09, cumulative = -7.77907e-06
smoothSolver:  Solving for epsilon, Initial residual = 0.0081549, Final residual = 6.10148e-07, No Iterations 8
smoothSolver:  Solving for k, Initial residual = 0.0213467, Final residual = 5.56329e-07, No Iterations 11
ExecutionTime = 0.73 s  ClockTime = 0 s

Courant Number mean: 0.107603 max: 0.714396
Interface Courant Number mean: 0.00446693 max: 0.487118
deltaT = 0.00267857
Time = 0.1

smoothSolver:  Solving for alpha.water, Initial residual = 0.00237032, Final residual = 1.49342e-09, No Iterations 3
Phase-1 volume fraction = 0.124752  Min(alpha.water) = -2.63339e-07  Max(alpha.water) = 1
MULES: Correcting alpha.water
MULES: Correcting alpha.water
Phase-1 volume fraction = 0.124752  Min(alpha.water) = -4.36205e-06  Max(alpha.water) = 1
DICPCG:  Solving for p_rgh, Initial residual = 0.0242381, Final residual = 0.000521476, No Iterations 2
time step continuity errors : sum local = 0.000285987, global = -4.11177e-07, cumulative = -8.19025e-06
DICPCG:  Solving for p_rgh, Initial residual = 0.000667523, Final residual = 2.81393e-05, No Iterations 27
time step continuity errors : sum local = 1.51283e-05, global = 1.47696e-06, cumulative = -6.71329e-06
DICPCG:  Solving for p_rgh, Initial residual = 0.000188927, Final residual = 8.39292e-08, No Iterations 111
time step continuity errors : sum local = 4.63643e-08, global = -2.26317e-09, cumulative = -6.71555e-06
smoothSolver:  Solving for epsilon, Initial residual = 0.00838367, Final residual = 6.69738e-07, No Iterations 8
smoothSolver:  Solving for k, Initial residual = 0.0207918, Final residual = 5.79191e-07, No Iterations 11
ExecutionTime = 0.76 s  ClockTime = 0 s

Courant Number mean: 0.110706 max: 0.735898
Interface Courant Number mean: 0.00449714 max: 0.485715
deltaT = 0.00294118
Time = 0.102941

smoothSolver:  Solving for alpha.water, Initial residual = 0.00267624, Final residual = 3.33814e-09, No Iterations 3
Phase-1 volume fraction = 0.124752  Min(alpha.water) = -2.33432e-07  Max(alpha.water) = 1
MULES: Correcting alpha.water
MULES: Correcting alpha.water
Phase-1 volume fraction = 0.124752  Min(alpha.water) = -6.7901e-06  Max(alpha.water) = 1.00001
DICPCG:  Solving for p_rgh, Initial residual = 0.0184245, Final residual = 0.000412541, No Iterations 2
time step continuity errors : sum local = 0.000256955, global = -9.28596e-07, cumulative = -7.64415e-06
DICPCG:  Solving for p_rgh, Initial residual = 0.000551876, Final residual = 2.45537e-05, No Iterations 26
time step continuity errors : sum local = 1.50159e-05, global = 6.25976e-07, cumulative = -7.01817e-06
DICPCG:  Solving for p_rgh, Initial residual = 0.00016234, Final residual = 8.87009e-08, No Iterations 111
time step continuity errors : sum local = 5.59262e-08, global = -3.36901e-09, cumulative = -7.02154e-06
smoothSolver:  Solving for epsilon, Initial residual = 0.00944618, Final residual = 5.2618e-07, No Iterations 9
smoothSolver:  Solving for k, Initial residual = 0.022281, Final residual = 5.66949e-07, No Iterations 12
ExecutionTime = 0.79 s  ClockTime = 0 s

Courant Number mean: 0.12515 max: 0.835729
Interface Courant Number mean: 0.00517953 max: 0.542454
deltaT = 0.00313725
Time = 0.106078

smoothSolver:  Solving for alpha.water, Initial residual = 0.00293671, Final residual = 6.42864e-09, No Iterations 3
Phase-1 volume fraction = 0.124752  Min(alpha.water) = -2.0334e-07  Max(alpha.water) = 1
MULES: Correcting alpha.water
MULES: Correcting alpha.water
Phase-1 volume fraction = 0.124752  Min(alpha.water) = -9.09974e-06  Max(alpha.water) = 1
DICPCG:  Solving for p_rgh, Initial residual = 0.0188485, Final residual = 0.000443453, No Iterations 2
time step continuity errors : sum local = 0.000301428, global = -5.49301e-07, cumulative = -7.57084e-06
DICPCG:  Solving for p_rgh, Initial residual = 0.000614377, Final residual = 2.89017e-05, No Iterations 26
time step continuity errors : sum local = 1.92878e-05, global = 2.1716e-06, cumulative = -5.39924e-06
DICPCG:  Solving for p_rgh, Initial residual = 0.000200047, Final residual = 8.99621e-08, No Iterations 112
time step continuity errors : sum local = 6.19162e-08, global = -3.8392e-09, cumulative = -5.40308e-06
smoothSolver:  Solving for epsilon, Initial residual = 0.0103635, Final residual = 9.13747e-07, No Iterations 9
smoothSolver:  Solving for k, Initial residual = 0.0231653, Final residual = 9.96107e-07, No Iterations 12
ExecutionTime = 0.81 s  ClockTime = 0 s

Courant Number mean: 0.137409 max: 0.92373
Interface Courant Number mean: 0.00565864 max: 0.577106
deltaT = 0.00337858
Time = 0.109457

smoothSolver:  Solving for alpha.water, Initial residual = 0.00325255, Final residual = 1.64961e-10, No Iterations 4
Phase-1 volume fraction = 0.124752  Min(alpha.water) = -1.73216e-07  Max(alpha.water) = 1
MULES: Correcting alpha.water
MULES: Correcting alpha.water
Phase-1 volume fraction = 0.124752  Min(alpha.water) = -1.17728e-05  Max(alpha.water) = 1.00001
DICPCG:  Solving for p_rgh, Initial residual = 0.023556, Final residual = 0.000647937, No Iterations 2
time step continuity errors : sum local = 0.000492927, global = -1.59038e-06, cumulative = -6.99346e-06
DICPCG:  Solving for p_rgh, Initial residual = 0.000877009, Final residual = 4.08448e-05, No Iterations 28
time step continuity errors : sum local = 3.03432e-05, global = 2.17718e-06, cumulative = -4.81627e-06
DICPCG:  Solving for p_rgh, Initial residual = 0.000281911, Final residual = 9.43292e-08, No Iterations 115
time step continuity errors : sum local = 7.23186e-08, global = -2.45192e-09, cumulative = -4.81873e-06
smoothSolver:  Solving for epsilon, Initial residual = 0.011517, Final residual = 7.03192e-07, No Iterations 10
smoothSolver:  Solving for k, Initial residual = 0.0242632, Final residual = 8.99823e-07, No Iterations 13
ExecutionTime = 0.83 s  ClockTime = 1 s

Courant Number mean: 0.152324 max: 1.03414
Interface Courant Number mean: 0.00652304 max: 0.641974
deltaT = 0.00311869
Time = 0.112576

smoothSolver:  Solving for alpha.water, Initial residual = 0.00309018, Final residual = 1.44685e-10, No Iterations 4
Phase-1 volume fraction = 0.124752  Min(alpha.water) = -1.47675e-07  Max(alpha.water) = 1
MULES: Correcting alpha.water
MULES: Correcting alpha.water
Phase-1 volume fraction = 0.124752  Min(alpha.water) = -9.07806e-06  Max(alpha.water) = 1.00001
DICPCG:  Solving for p_rgh, Initial residual = 0.029303, Final residual = 0.000597437, No Iterations 2
time step continuity errors : sum local = 0.00040936, global = -1.04123e-06, cumulative = -5.85995e-06
DICPCG:  Solving for p_rgh, Initial residual = 0.00082534, Final residual = 3.68539e-05, No Iterations 26
time step continuity errors : sum local = 2.45708e-05, global = 3.20395e-06, cumulative = -2.656e-06
DICPCG:  Solving for p_rgh, Initial residual = 0.000262801, Final residual = 9.88257e-08, No Iterations 113
time step continuity errors : sum local = 6.76759e-08, global = -2.0969e-09, cumulative = -2.65809e-06
smoothSolver:  Solving for epsilon, Initial residual = 0.0109831, Final residual = 4.18927e-07, No Iterations 10
smoothSolver:  Solving for k, Initial residual = 0.0216784, Final residual = 9.94589e-07, No Iterations 12
ExecutionTime = 0.85 s  ClockTime = 1 s

Courant Number mean: 0.144334 max: 0.988274
Interface Courant Number mean: 0.00630534 max: 0.590247
deltaT = 0.00311869
Time = 0.115694

smoothSolver:  Solving for alpha.water, Initial residual = 0.00317383, Final residual = 1.98951e-10, No Iterations 4
Phase-1 volume fraction = 0.124752  Min(alpha.water) = -1.24501e-07  Max(alpha.water) = 1
MULES: Correcting alpha.water
MULES: Correcting alpha.water
Phase-1 volume fraction = 0.124752  Min(alpha.water) = -7.43708e-06  Max(alpha.water) = 1
DICPCG:  Solving for p_rgh, Initial residual = 0.0207109, Final residual = 0.000543868, No Iterations 2
time step continuity errors : sum local = 0.000368664, global = -2.04082e-06, cumulative = -4.69891e-06
DICPCG:  Solving for p_rgh, Initial residual = 0.000735593, Final residual = 3.10851e-05, No Iterations 26
time step continuity errors : sum local = 2.06779e-05, global = 2.57501e-06, cumulative = -2.12391e-06
DICPCG:  Solving for p_rgh, Initial residual = 0.000228485, Final residual = 8.25611e-08, No Iterations 114
time step continuity errors : sum local = 5.64881e-08, global = -9.72221e-10, cumulative = -2.12488e-06
smoothSolver:  Solving for epsilon, Initial residual = 0.0113168, Final residual = 4.49394e-07, No Iterations 10
smoothSolver:  Solving for k, Initial residual = 0.0211249, Final residual = 4.75263e-07, No Iterations 13
ExecutionTime = 0.87 s  ClockTime = 1 s

Courant Number mean: 0.148015 max: 1.02399
Interface Courant Number mean: 0.00620899 max: 0.61094
deltaT = 0.0028588
Time = 0.118553

smoothSolver:  Solving for alpha.water, Initial residual = 0.00298835, Final residual = 1.60789e-10, No Iterations 4
Phase-1 volume fraction = 0.124752  Min(alpha.water) = -1.05363e-07  Max(alpha.water) = 1
MULES: Correcting alpha.water
MULES: Correcting alpha.water
Phase-1 volume fraction = 0.124752  Min(alpha.water) = -4.76946e-06  Max(alpha.water) = 1
DICPCG:  Solving for p_rgh, Initial residual = 0.0166007, Final residual = 0.000548851, No Iterations 2
time step continuity errors : sum local = 0.000329784, global = -1.36875e-06, cumulative = -3.49363e-06
DICPCG:  Solving for p_rgh, Initial residual = 0.000726415, Final residual = 3.52668e-05, No Iterations 26
time step continuity errors : sum local = 2.08426e-05, global = 3.51738e-06, cumulative = 2.37489e-08
DICPCG:  Solving for p_rgh, Initial residual = 0.000221883, Final residual = 8.47612e-08, No Iterations 114
time step continuity errors : sum local = 5.1365e-08, global = -6.15281e-10, cumulative = 2.31336e-08
smoothSolver:  Solving for epsilon, Initial residual = 0.0107572, Final residual = 6.33917e-07, No Iterations 9
smoothSolver:  Solving for k, Initial residual = 0.0189259, Final residual = 5.00133e-07, No Iterations 12
ExecutionTime = 0.9 s  ClockTime = 1 s

Courant Number mean: 0.138841 max: 0.969588
Interface Courant Number mean: 0.00582447 max: 0.553047
deltaT = 0.0028588
Time = 0.121412

smoothSolver:  Solving for alpha.water, Initial residual = 0.00306112, Final residual = 2.06542e-10, No Iterations 4
Phase-1 volume fraction = 0.124752  Min(alpha.water) = -8.84999e-08  Max(alpha.water) = 1
MULES: Correcting alpha.water
MULES: Correcting alpha.water
Phase-1 volume fraction = 0.124752  Min(alpha.water) = -3.4479e-06  Max(alpha.water) = 1
DICPCG:  Solving for p_rgh, Initial residual = 0.0235198, Final residual = 0.000647909, No Iterations 2
time step continuity errors : sum local = 0.000393909, global = -1.98554e-06, cumulative = -1.96241e-06
DICPCG:  Solving for p_rgh, Initial residual = 0.000851265, Final residual = 3.92463e-05, No Iterations 28
time step continuity errors : sum local = 2.33306e-05, global = 1.05989e-06, cumulative = -9.02521e-07
DICPCG:  Solving for p_rgh, Initial residual = 0.000257233, Final residual = 8.94932e-08, No Iterations 114
time step continuity errors : sum local = 5.46293e-08, global = -1.00747e-09, cumulative = -9.03529e-07
smoothSolver:  Solving for epsilon, Initial residual = 0.0110796, Final residual = 6.67487e-07, No Iterations 9
smoothSolver:  Solving for k, Initial residual = 0.0185326, Final residual = 5.05307e-07, No Iterations 12
ExecutionTime = 0.92 s  ClockTime = 1 s

Courant Number mean: 0.141972 max: 1.00272
Interface Courant Number mean: 0.00600685 max: 0.585073
deltaT = 0.00259891
Time = 0.124011

smoothSolver:  Solving for alpha.water, Initial residual = 0.00284637, Final residual = 1.50005e-10, No Iterations 4
Phase-1 volume fraction = 0.124752  Min(alpha.water) = -7.34897e-08  Max(alpha.water) = 1
MULES: Correcting alpha.water
MULES: Correcting alpha.water
Phase-1 volume fraction = 0.124752  Min(alpha.water) = -2.60983e-06  Max(alpha.water) = 1.00001
DICPCG:  Solving for p_rgh, Initial residual = 0.0240171, Final residual = 0.000691861, No Iterations 2
time step continuity errors : sum local = 0.000365874, global = -7.00084e-07, cumulative = -1.60361e-06
DICPCG:  Solving for p_rgh, Initial residual = 0.000890738, Final residual = 4.13044e-05, No Iterations 26
time step continuity errors : sum local = 2.13722e-05, global = 3.11646e-06, cumulative = 1.51284e-06
DICPCG:  Solving for p_rgh, Initial residual = 0.000245409, Final residual = 9.9826e-08, No Iterations 112
time step continuity errors : sum local = 5.28722e-08, global = -1.8687e-09, cumulative = 1.51097e-06
smoothSolver:  Solving for epsilon, Initial residual = 0.0103831, Final residual = 9.54133e-07, No Iterations 8
smoothSolver:  Solving for k, Initial residual = 0.0164803, Final residual = 5.28165e-07, No Iterations 11
ExecutionTime = 0.94 s  ClockTime = 1 s

Courant Number mean: 0.131689 max: 0.939858
Interface Courant Number mean: 0.00562083 max: 0.511059
deltaT = 0.00259891
Time = 0.12661

smoothSolver:  Solving for alpha.water, Initial residual = 0.00290438, Final residual = 1.79218e-10, No Iterations 4
Phase-1 volume fraction = 0.124752  Min(alpha.water) = -6.18608e-08  Max(alpha.water) = 1
MULES: Correcting alpha.water
MULES: Correcting alpha.water
Phase-1 volume fraction = 0.124752  Min(alpha.water) = -2.88986e-06  Max(alpha.water) = 1
DICPCG:  Solving for p_rgh, Initial residual = 0.0208514, Final residual = 0.000893831, No Iterations 2
time step continuity errors : sum local = 0.000471395, global = -1.7183e-06, cumulative = -2.07326e-07
DICPCG:  Solving for p_rgh, Initial residual = 0.00109716, Final residual = 5.25826e-05, No Iterations 27
time step continuity errors : sum local = 2.72705e-05, global = 1.8416e-06, cumulative = 1.63427e-06
DICPCG:  Solving for p_rgh, Initial residual = 0.000285253, Final residual = 9.09684e-08, No Iterations 114
time step continuity errors : sum local = 4.8326e-08, global = -1.1544e-09, cumulative = 1.63312e-06
smoothSolver:  Solving for epsilon, Initial residual = 0.0106666, Final residual = 9.84411e-07, No Iterations 8
smoothSolver:  Solving for k, Initial residual = 0.0162078, Final residual = 5.27381e-07, No Iterations 11
ExecutionTime = 0.96 s  ClockTime = 1 s

Courant Number mean: 0.13427 max: 0.970253
Interface Courant Number mean: 0.00553492 max: 0.562196
deltaT = 0.00259891
Time = 0.129209

smoothSolver:  Solving for alpha.water, Initial residual = 0.00296292, Final residual = 2.02567e-10, No Iterations 4
Phase-1 volume fraction = 0.124752  Min(alpha.water) = -5.17527e-08  Max(alpha.water) = 1
MULES: Correcting alpha.water
MULES: Correcting alpha.water
Phase-1 volume fraction = 0.124752  Min(alpha.water) = -3.22138e-06  Max(alpha.water) = 1.00001
DICPCG:  Solving for p_rgh, Initial residual = 0.022236, Final residual = 0.000917476, No Iterations 4
time step continuity errors : sum local = 0.000491498, global = -1.3329e-06, cumulative = 3.00213e-07
DICPCG:  Solving for p_rgh, Initial residual = 0.00121007, Final residual = 5.53956e-05, No Iterations 33
time step continuity errors : sum local = 2.91054e-05, global = 3.41662e-06, cumulative = 3.71683e-06
DICPCG:  Solving for p_rgh, Initial residual = 0.00035017, Final residual = 9.44439e-08, No Iterations 119
time step continuity errors : sum local = 5.07393e-08, global = -2.25613e-09, cumulative = 3.71457e-06
smoothSolver:  Solving for epsilon, Initial residual = 0.0110483, Final residual = 3.68569e-07, No Iterations 9
smoothSolver:  Solving for k, Initial residual = 0.0159995, Final residual = 5.26284e-07, No Iterations 11
ExecutionTime = 0.98 s  ClockTime = 1 s

Courant Number mean: 0.136838 max: 1.00252
Interface Courant Number mean: 0.00550205 max: 0.533291
deltaT = 0.00231014
Time = 0.131519

smoothSolver:  Solving for alpha.water, Initial residual = 0.00268834, Final residual = 1.09438e-10, No Iterations 4
Phase-1 volume fraction = 0.124752  Min(alpha.water) = -4.39241e-08  Max(alpha.water) = 1
MULES: Correcting alpha.water
MULES: Correcting alpha.water
Phase-1 volume fraction = 0.124752  Min(alpha.water) = -2.2182e-06  Max(alpha.water) = 1.00001
DICPCG:  Solving for p_rgh, Initial residual = 0.0192294, Final residual = 0.000910452, No Iterations 4
time step continuity errors : sum local = 0.000408962, global = -1.66849e-06, cumulative = 2.04609e-06
DICPCG:  Solving for p_rgh, Initial residual = 0.00115622, Final residual = 5.68802e-05, No Iterations 32
time step continuity errors : sum local = 2.51149e-05, global = 1.80233e-06, cumulative = 3.84841e-06
DICPCG:  Solving for p_rgh, Initial residual = 0.000293814, Final residual = 9.93567e-08, No Iterations 116
time step continuity errors : sum local = 4.4725e-08, global = 5.1168e-10, cumulative = 3.84893e-06
smoothSolver:  Solving for epsilon, Initial residual = 0.0101121, Final residual = 4.57318e-07, No Iterations 8
smoothSolver:  Solving for k, Initial residual = 0.0140144, Final residual = 4.9803e-07, No Iterations 10
ExecutionTime = 1 s  ClockTime = 1 s

Courant Number mean: 0.123719 max: 0.91782
Interface Courant Number mean: 0.00507183 max: 0.468058
deltaT = 0.00231014
Time = 0.133829

smoothSolver:  Solving for alpha.water, Initial residual = 0.00273512, Final residual = 1.08672e-10, No Iterations 4
Phase-1 volume fraction = 0.124752  Min(alpha.water) = -3.71571e-08  Max(alpha.water) = 1
MULES: Correcting alpha.water
MULES: Correcting alpha.water
Phase-1 volume fraction = 0.124752  Min(alpha.water) = -2.49862e-06  Max(alpha.water) = 1
DICPCG:  Solving for p_rgh, Initial residual = 0.0188401, Final residual = 0.000798838, No Iterations 4
time step continuity errors : sum local = 0.000357239, global = -1.00838e-06, cumulative = 2.84055e-06
DICPCG:  Solving for p_rgh, Initial residual = 0.00101114, Final residual = 4.78697e-05, No Iterations 32
time step continuity errors : sum local = 2.1062e-05, global = 2.02347e-06, cumulative = 4.86402e-06
DICPCG:  Solving for p_rgh, Initial residual = 0.000256352, Final residual = 9.95427e-08, No Iterations 115
time step continuity errors : sum local = 4.47346e-08, global = -1.9207e-10, cumulative = 4.86383e-06
smoothSolver:  Solving for epsilon, Initial residual = 0.0104062, Final residual = 4.66626e-07, No Iterations 8
smoothSolver:  Solving for k, Initial residual = 0.013846, Final residual = 4.97476e-07, No Iterations 10
ExecutionTime = 1.03 s  ClockTime = 1 s

Courant Number mean: 0.125784 max: 0.946588
Interface Courant Number mean: 0.00523328 max: 0.504889
deltaT = 0.00231014
Time = 0.136139

smoothSolver:  Solving for alpha.water, Initial residual = 0.00277972, Final residual = 1.01922e-10, No Iterations 4
Phase-1 volume fraction = 0.124752  Min(alpha.water) = -3.131e-08  Max(alpha.water) = 1
MULES: Correcting alpha.water
MULES: Correcting alpha.water
Phase-1 volume fraction = 0.124752  Min(alpha.water) = -2.73007e-06  Max(alpha.water) = 1
DICPCG:  Solving for p_rgh, Initial residual = 0.0241928, Final residual = 0.000796916, No Iterations 3
time step continuity errors : sum local = 0.000360729, global = -1.07512e-06, cumulative = 3.78871e-06
DICPCG:  Solving for p_rgh, Initial residual = 0.00101795, Final residual = 4.68109e-05, No Iterations 31
time step continuity errors : sum local = 2.07659e-05, global = 1.76522e-06, cumulative = 5.55393e-06
DICPCG:  Solving for p_rgh, Initial residual = 0.000270424, Final residual = 8.95066e-08, No Iterations 115
time step continuity errors : sum local = 4.05184e-08, global = -4.17974e-10, cumulative = 5.55351e-06
smoothSolver:  Solving for epsilon, Initial residual = 0.0107552, Final residual = 4.7256e-07, No Iterations 8
smoothSolver:  Solving for k, Initial residual = 0.0137087, Final residual = 4.93487e-07, No Iterations 10
ExecutionTime = 1.05 s  ClockTime = 1 s

Courant Number mean: 0.127793 max: 0.977789
Interface Courant Number mean: 0.00527933 max: 0.480715
deltaT = 0.00231014
Time = 0.138449

smoothSolver:  Solving for alpha.water, Initial residual = 0.0028265, Final residual = 8.7538e-11, No Iterations 4
Phase-1 volume fraction = 0.124752  Min(alpha.water) = -2.62771e-08  Max(alpha.water) = 1
MULES: Correcting alpha.water
MULES: Correcting alpha.water
Phase-1 volume fraction = 0.124752  Min(alpha.water) = -2.96553e-06  Max(alpha.water) = 1.00001
DICPCG:  Solving for p_rgh, Initial residual = 0.0210542, Final residual = 0.00072794, No Iterations 3
time step continuity errors : sum local = 0.000329111, global = -9.45692e-07, cumulative = 4.60782e-06
DICPCG:  Solving for p_rgh, Initial residual = 0.000919666, Final residual = 4.10796e-05, No Iterations 31
time step continuity errors : sum local = 1.82747e-05, global = 1.67648e-06, cumulative = 6.2843e-06
DICPCG:  Solving for p_rgh, Initial residual = 0.000244952, Final residual = 8.19356e-08, No Iterations 115
time step continuity errors : sum local = 3.71857e-08, global = -7.948e-10, cumulative = 6.2835e-06
smoothSolver:  Solving for epsilon, Initial residual = 0.0110919, Final residual = 4.75333e-07, No Iterations 8
smoothSolver:  Solving for k, Initial residual = 0.0136016, Final residual = 4.87909e-07, No Iterations 10
ExecutionTime = 1.07 s  ClockTime = 1 s

Courant Number mean: 0.129768 max: 1.01185
Interface Courant Number mean: 0.00522166 max: 0.484841
deltaT = 0.00192512
Time = 0.140374

smoothSolver:  Solving for alpha.water, Initial residual = 0.00239391, Final residual = 5.72734e-09, No Iterations 3
Phase-1 volume fraction = 0.124752  Min(alpha.water) = -3.95223e-08  Max(alpha.water) = 1
MULES: Correcting alpha.water
MULES: Correcting alpha.water
Phase-1 volume fraction = 0.124752  Min(alpha.water) = -1.57936e-06  Max(alpha.water) = 1
DICPCG:  Solving for p_rgh, Initial residual = 0.0156632, Final residual = 0.000616625, No Iterations 3
time step continuity errors : sum local = 0.000212227, global = -7.0756e-07, cumulative = 5.57594e-06
DICPCG:  Solving for p_rgh, Initial residual = 0.000779042, Final residual = 3.87032e-05, No Iterations 30
time step continuity errors : sum local = 1.31401e-05, global = 1.26754e-06, cumulative = 6.84349e-06
DICPCG:  Solving for p_rgh, Initial residual = 0.000200621, Final residual = 9.35294e-08, No Iterations 113
time step continuity errors : sum local = 3.22604e-08, global = -1.04634e-09, cumulative = 6.84244e-06
smoothSolver:  Solving for epsilon, Initial residual = 0.00951918, Final residual = 4.2607e-07, No Iterations 7
smoothSolver:  Solving for k, Initial residual = 0.0112193, Final residual = 8.83479e-07, No Iterations 8
ExecutionTime = 1.09 s  ClockTime = 1 s

Courant Number mean: 0.109576 max: 0.868605
Interface Courant Number mean: 0.00447138 max: 0.433601
deltaT = 0.00192512
Time = 0.1423

smoothSolver:  Solving for alpha.water, Initial residual = 0.00242947, Final residual = 4.23813e-09, No Iterations 3
Phase-1 volume fraction = 0.124752  Min(alpha.water) = -3.33215e-08  Max(alpha.water) = 1
MULES: Correcting alpha.water
MULES: Correcting alpha.water
Phase-1 volume fraction = 0.124752  Min(alpha.water) = -1.73694e-06  Max(alpha.water) = 1
DICPCG:  Solving for p_rgh, Initial residual = 0.0139134, Final residual = 0.000561012, No Iterations 3
time step continuity errors : sum local = 0.000192393, global = -5.55553e-07, cumulative = 6.28689e-06
DICPCG:  Solving for p_rgh, Initial residual = 0.000712416, Final residual = 3.13877e-05, No Iterations 31
time step continuity errors : sum local = 1.06409e-05, global = 9.78481e-07, cumulative = 7.26537e-06
DICPCG:  Solving for p_rgh, Initial residual = 0.000195198, Final residual = 8.42913e-08, No Iterations 113
time step continuity errors : sum local = 2.91113e-08, global = -4.17228e-10, cumulative = 7.26495e-06
smoothSolver:  Solving for epsilon, Initial residual = 0.00986552, Final residual = 4.29534e-07, No Iterations 7
smoothSolver:  Solving for k, Initial residual = 0.0111635, Final residual = 8.81647e-07, No Iterations 8
ExecutionTime = 1.11 s  ClockTime = 1 s

Courant Number mean: 0.111008 max: 0.896597
Interface Courant Number mean: 0.00432854 max: 0.41958
deltaT = 0.00192512
Time = 0.144225

smoothSolver:  Solving for alpha.water, Initial residual = 0.00246307, Final residual = 3.02049e-09, No Iterations 3
Phase-1 volume fraction = 0.124752  Min(alpha.water) = -2.8044e-08  Max(alpha.water) = 1
MULES: Correcting alpha.water
MULES: Correcting alpha.water
Phase-1 volume fraction = 0.124752  Min(alpha.water) = -1.8341e-06  Max(alpha.water) = 1
DICPCG:  Solving for p_rgh, Initial residual = 0.0217401, Final residual = 0.000734557, No Iterations 3
time step continuity errors : sum local = 0.000256973, global = -4.33599e-07, cumulative = 6.83135e-06
DICPCG:  Solving for p_rgh, Initial residual = 0.000954893, Final residual = 4.26764e-05, No Iterations 31
time step continuity errors : sum local = 1.46404e-05, global = 1.70229e-06, cumulative = 8.53364e-06
DICPCG:  Solving for p_rgh, Initial residual = 0.000259334, Final residual = 9.03086e-08, No Iterations 114
time step continuity errors : sum local = 3.15415e-08, global = -5.53401e-10, cumulative = 8.53309e-06
smoothSolver:  Solving for epsilon, Initial residual = 0.0102265, Final residual = 4.3047e-07, No Iterations 7
smoothSolver:  Solving for k, Initial residual = 0.0111177, Final residual = 8.77604e-07, No Iterations 8
ExecutionTime = 1.13 s  ClockTime = 1 s

Courant Number mean: 0.112419 max: 0.927359
Interface Courant Number mean: 0.00444543 max: 0.492309
deltaT = 0.00192512
Time = 0.14615

smoothSolver:  Solving for alpha.water, Initial residual = 0.00249358, Final residual = 2.08639e-09, No Iterations 3
Phase-1 volume fraction = 0.124752  Min(alpha.water) = -2.35624e-08  Max(alpha.water) = 1
MULES: Correcting alpha.water
MULES: Correcting alpha.water
Phase-1 volume fraction = 0.124752  Min(alpha.water) = -1.91263e-06  Max(alpha.water) = 1
DICPCG:  Solving for p_rgh, Initial residual = 0.021639, Final residual = 0.000744441, No Iterations 3
time step continuity errors : sum local = 0.000259066, global = -7.67263e-07, cumulative = 7.76582e-06
DICPCG:  Solving for p_rgh, Initial residual = 0.000987633, Final residual = 4.55927e-05, No Iterations 29
time step continuity errors : sum local = 1.55809e-05, global = 1.82267e-06, cumulative = 9.58849e-06
DICPCG:  Solving for p_rgh, Initial residual = 0.000281065, Final residual = 8.64023e-08, No Iterations 113
time step continuity errors : sum local = 3.00474e-08, global = -5.55112e-10, cumulative = 9.58794e-06
smoothSolver:  Solving for epsilon, Initial residual = 0.010632, Final residual = 4.28044e-07, No Iterations 7
smoothSolver:  Solving for k, Initial residual = 0.0110749, Final residual = 8.67607e-07, No Iterations 8
ExecutionTime = 1.15 s  ClockTime = 1 s

Courant Number mean: 0.113796 max: 0.961181
Interface Courant Number mean: 0.00450478 max: 0.484676
deltaT = 0.00192512
Time = 0.148075

smoothSolver:  Solving for alpha.water, Initial residual = 0.00252595, Final residual = 1.73833e-09, No Iterations 3
Phase-1 volume fraction = 0.124752  Min(alpha.water) = -1.97651e-08  Max(alpha.water) = 1
MULES: Correcting alpha.water
MULES: Correcting alpha.water
Phase-1 volume fraction = 0.124752  Min(alpha.water) = -5.0561e-06  Max(alpha.water) = 1
DICPCG:  Solving for p_rgh, Initial residual = 0.0189184, Final residual = 0.000790049, No Iterations 3
time step continuity errors : sum local = 0.000273711, global = -8.14627e-07, cumulative = 8.77331e-06
DICPCG:  Solving for p_rgh, Initial residual = 0.00105439, Final residual = 4.62465e-05, No Iterations 29
time step continuity errors : sum local = 1.57832e-05, global = 1.94956e-06, cumulative = 1.07229e-05
DICPCG:  Solving for p_rgh, Initial residual = 0.000304127, Final residual = 8.38313e-08, No Iterations 113
time step continuity errors : sum local = 2.91008e-08, global = -8.80353e-10, cumulative = 1.0722e-05
smoothSolver:  Solving for epsilon, Initial residual = 0.0111026, Final residual = 4.22046e-07, No Iterations 7
smoothSolver:  Solving for k, Initial residual = 0.0110573, Final residual = 8.5405e-07, No Iterations 8
ExecutionTime = 1.18 s  ClockTime = 1 s

Courant Number mean: 0.115142 max: 0.99855
Interface Courant Number mean: 0.00454545 max: 0.482206
deltaT = 0.00192512
Time = 0.15

smoothSolver:  Solving for alpha.water, Initial residual = 0.00255736, Final residual = 1.70935e-09, No Iterations 3
Phase-1 volume fraction = 0.124752  Min(alpha.water) = -4.20433e-06  Max(alpha.water) = 1
MULES: Correcting alpha.water
MULES: Correcting alpha.water
Phase-1 volume fraction = 0.124752  Min(alpha.water) = -4.20433e-06  Max(alpha.water) = 1.00001
DICPCG:  Solving for p_rgh, Initial residual = 0.0139909, Final residual = 0.000530631, No Iterations 4
time step continuity errors : sum local = 0.000183197, global = -8.69e-07, cumulative = 9.85299e-06
DICPCG:  Solving for p_rgh, Initial residual = 0.000739837, Final residual = 3.57524e-05, No Iterations 31
time step continuity errors : sum local = 1.22036e-05, global = 1.51107e-06, cumulative = 1.13641e-05
DICPCG:  Solving for p_rgh, Initial residual = 0.000235388, Final residual = 8.83038e-08, No Iterations 112
time step continuity errors : sum local = 3.0662e-08, global = -1.02287e-09, cumulative = 1.1363e-05
smoothSolver:  Solving for epsilon, Initial residual = 0.0116855, Final residual = 4.17347e-07, No Iterations 7
smoothSolver:  Solving for k, Initial residual = 0.0110852, Final residual = 8.44506e-07, No Iterations 8
ExecutionTime = 1.22 s  ClockTime = 1 s

Courant Number mean: 0.116468 max: 1.03993
Interface Courant Number mean: 0.00468691 max: 0.788103
deltaT = 0.00185185
Time = 0.151852

smoothSolver:  Solving for alpha.water, Initial residual = 0.00249372, Final residual = 1.36095e-09, No Iterations 3
Phase-1 volume fraction = 0.124752  Min(alpha.water) = -3.5099e-06  Max(alpha.water) = 1
MULES: Correcting alpha.water
MULES: Correcting alpha.water
Phase-1 volume fraction = 0.124752  Min(alpha.water) = -3.5099e-06  Max(alpha.water) = 1.00001
DICPCG:  Solving for p_rgh, Initial residual = 0.0174632, Final residual = 0.00056797, No Iterations 4
time step continuity errors : sum local = 0.000187703, global = -6.68261e-07, cumulative = 1.06948e-05
DICPCG:  Solving for p_rgh, Initial residual = 0.0007932, Final residual = 3.57612e-05, No Iterations 32
time step continuity errors : sum local = 1.16257e-05, global = 1.36849e-06, cumulative = 1.20633e-05
DICPCG:  Solving for p_rgh, Initial residual = 0.000255137, Final residual = 9.52608e-08, No Iterations 112
time step continuity errors : sum local = 3.14664e-08, global = -1.00603e-09, cumulative = 1.20623e-05
smoothSolver:  Solving for epsilon, Initial residual = 0.0118639, Final residual = 3.16968e-07, No Iterations 7
smoothSolver:  Solving for k, Initial residual = 0.0106734, Final residual = 6.37171e-07, No Iterations 8
ExecutionTime = 1.25 s  ClockTime = 1 s

Courant Number mean: 0.113267 max: 1.0433
Interface Courant Number mean: 0.0045416 max: 0.767375
deltaT = 0.00171958
Time = 0.153571

smoothSolver:  Solving for alpha.water, Initial residual = 0.00234042, Final residual = 8.79491e-10, No Iterations 3
Phase-1 volume fraction = 0.124752  Min(alpha.water) = -2.95884e-06  Max(alpha.water) = 1
MULES: Correcting alpha.water
MULES: Correcting alpha.water
Phase-1 volume fraction = 0.124752  Min(alpha.water) = -2.95884e-06  Max(alpha.water) = 1
DICPCG:  Solving for p_rgh, Initial residual = 0.0186302, Final residual = 0.00065505, No Iterations 4
time step continuity errors : sum local = 0.000193653, global = -6.1214e-07, cumulative = 1.14501e-05
DICPCG:  Solving for p_rgh, Initial residual = 0.000906895, Final residual = 4.45949e-05, No Iterations 31
time step continuity errors : sum local = 1.29688e-05, global = 1.60072e-06, cumulative = 1.30508e-05
DICPCG:  Solving for p_rgh, Initial residual = 0.000288549, Final residual = 8.35453e-08, No Iterations 113
time step continuity errors : sum local = 2.46521e-08, global = -6.62439e-10, cumulative = 1.30502e-05
smoothSolver:  Solving for epsilon, Initial residual = 0.0117009, Final residual = 7.00715e-07, No Iterations 6
smoothSolver:  Solving for k, Initial residual = 0.00993159, Final residual = 3.69521e-07, No Iterations 8
ExecutionTime = 1.27 s  ClockTime = 1 s

Courant Number mean: 0.106243 max: 1.01048
Interface Courant Number mean: 0.00433571 max: 0.849023
deltaT = 0.00165816
Time = 0.15523

smoothSolver:  Solving for alpha.water, Initial residual = 0.00228504, Final residual = 7.19747e-10, No Iterations 3
Phase-1 volume fraction = 0.124752  Min(alpha.water) = -2.50339e-06  Max(alpha.water) = 1
MULES: Correcting alpha.water
MULES: Correcting alpha.water
Phase-1 volume fraction = 0.124752  Min(alpha.water) = -2.50339e-06  Max(alpha.water) = 1
DICPCG:  Solving for p_rgh, Initial residual = 0.0186717, Final residual = 0.000748194, No Iterations 4
time step continuity errors : sum local = 0.000208551, global = -6.87086e-07, cumulative = 1.23631e-05
DICPCG:  Solving for p_rgh, Initial residual = 0.00103045, Final residual = 4.95615e-05, No Iterations 32
time step continuity errors : sum local = 1.35962e-05, global = 1.44543e-06, cumulative = 1.38085e-05
DICPCG:  Solving for p_rgh, Initial residual = 0.000340923, Final residual = 8.73495e-08, No Iterations 114
time step continuity errors : sum local = 2.43102e-08, global = -5.36683e-10, cumulative = 1.3808e-05
smoothSolver:  Solving for epsilon, Initial residual = 0.0119982, Final residual = 5.44095e-07, No Iterations 6
smoothSolver:  Solving for k, Initial residual = 0.00963432, Final residual = 8.85024e-07, No Iterations 7
ExecutionTime = 1.29 s  ClockTime = 1 s

Courant Number mean: 0.103433 max: 1.01743
Interface Courant Number mean: 0.00407342 max: 0.838696
deltaT = 0.00159894
Time = 0.156829

smoothSolver:  Solving for alpha.water, Initial residual = 0.00222365, Final residual = 6.0113e-10, No Iterations 3
Phase-1 volume fraction = 0.124752  Min(alpha.water) = -2.12553e-06  Max(alpha.water) = 1
MULES: Correcting alpha.water
MULES: Correcting alpha.water
Phase-1 volume fraction = 0.124752  Min(alpha.water) = -2.03364e-06  Max(alpha.water) = 1
DICPCG:  Solving for p_rgh, Initial residual = 0.0173812, Final residual = 0.000666056, No Iterations 4
time step continuity errors : sum local = 0.000174758, global = -6.60926e-07, cumulative = 1.31471e-05
DICPCG:  Solving for p_rgh, Initial residual = 0.000895531, Final residual = 3.84517e-05, No Iterations 33
time step continuity errors : sum local = 9.95153e-06, global = 1.28131e-06, cumulative = 1.44284e-05
DICPCG:  Solving for p_rgh, Initial residual = 0.000280958, Final residual = 9.59125e-08, No Iterations 113
time step continuity errors : sum local = 2.51714e-08, global = -6.60431e-10, cumulative = 1.44277e-05
smoothSolver:  Solving for epsilon, Initial residual = 0.01232, Final residual = 4.16608e-07, No Iterations 6
smoothSolver:  Solving for k, Initial residual = 0.00935422, Final residual = 6.77952e-07, No Iterations 7
ExecutionTime = 1.31 s  ClockTime = 1 s

Courant Number mean: 0.100641 max: 1.02403
Interface Courant Number mean: 0.00394903 max: 0.827766
deltaT = 0.00154184
Time = 0.15837

smoothSolver:  Solving for alpha.water, Initial residual = 0.00216712, Final residual = 5.06927e-10, No Iterations 3
Phase-1 volume fraction = 0.124752  Min(alpha.water) = -1.73203e-06  Max(alpha.water) = 1
MULES: Correcting alpha.water
MULES: Correcting alpha.water
Phase-1 volume fraction = 0.124752  Min(alpha.water) = -1.73203e-06  Max(alpha.water) = 1
DICPCG:  Solving for p_rgh, Initial residual = 0.0111752, Final residual = 0.000395201, No Iterations 3
time step continuity errors : sum local = 9.79755e-05, global = -5.04471e-07, cumulative = 1.39232e-05
DICPCG:  Solving for p_rgh, Initial residual = 0.0005038, Final residual = 2.38033e-05, No Iterations 29
time step continuity errors : sum local = 5.8461e-06, global = 4.19531e-07, cumulative = 1.43428e-05
DICPCG:  Solving for p_rgh, Initial residual = 0.000140893, Final residual = 9.95957e-08, No Iterations 82
time step continuity errors : sum local = 2.48001e-08, global = 6.17646e-09, cumulative = 1.43489e-05
smoothSolver:  Solving for epsilon, Initial residual = 0.0126964, Final residual = 3.20472e-07, No Iterations 6
[...]
time step continuity errors : sum local = 3.14446e-05, global = 7.46792e-08, cumulative = 5.81481e-05
DICPCG:  Solving for p_rgh, Initial residual = 0.000549441, Final residual = 9.90573e-08, No Iterations 125
time step continuity errors : sum local = 4.1689e-08, global = -3.684e-10, cumulative = 5.81477e-05
smoothSolver:  Solving for epsilon, Initial residual = 0.0123597, Final residual = 6.7619e-07, No Iterations 8
smoothSolver:  Solving for k, Initial residual = 0.00908697, Final residual = 5.08634e-07, No Iterations 10
ExecutionTime = 3.89 s  ClockTime = 4 s

Courant Number mean: 0.303443 max: 0.944141
Interface Courant Number mean: 0.0228703 max: 0.909075
deltaT = 0.0026455
Time = 0.362963

smoothSolver:  Solving for alpha.water, Initial residual = 0.0086131, Final residual = 6.54749e-09, No Iterations 3
Phase-1 volume fraction = 0.124752  Min(alpha.water) = -9.34361e-05  Max(alpha.water) = 1
MULES: Correcting alpha.water
MULES: Correcting alpha.water
Phase-1 volume fraction = 0.124752  Min(alpha.water) = -0.000180871  Max(alpha.water) = 1.00043
DICPCG:  Solving for p_rgh, Initial residual = 0.031863, Final residual = 0.00109971, No Iterations 3
time step continuity errors : sum local = 0.000465131, global = 1.36499e-06, cumulative = 5.95127e-05
DICPCG:  Solving for p_rgh, Initial residual = 0.00157839, Final residual = 7.45706e-05, No Iterations 19
time step continuity errors : sum local = 3.12905e-05, global = -4.75124e-07, cumulative = 5.90376e-05
DICPCG:  Solving for p_rgh, Initial residual = 0.000578441, Final residual = 9.63736e-08, No Iterations 129
time step continuity errors : sum local = 4.02586e-08, global = -2.98502e-10, cumulative = 5.90373e-05
smoothSolver:  Solving for epsilon, Initial residual = 0.0121563, Final residual = 6.83064e-07, No Iterations 8
smoothSolver:  Solving for k, Initial residual = 0.00895939, Final residual = 5.11149e-07, No Iterations 10
ExecutionTime = 3.91 s  ClockTime = 4 s

Courant Number mean: 0.305684 max: 0.932828
Interface Courant Number mean: 0.0231535 max: 0.899414
deltaT = 0.0026455
Time = 0.365608

smoothSolver:  Solving for alpha.water, Initial residual = 0.00870824, Final residual = 6.13128e-09, No Iterations 3
Phase-1 volume fraction = 0.124752  Min(alpha.water) = -7.71437e-05  Max(alpha.water) = 1
MULES: Correcting alpha.water
MULES: Correcting alpha.water
Phase-1 volume fraction = 0.124752  Min(alpha.water) = -7.71437e-05  Max(alpha.water) = 1.00064
DICPCG:  Solving for p_rgh, Initial residual = 0.0306728, Final residual = 0.00101234, No Iterations 3
time step continuity errors : sum local = 0.000428528, global = 1.66486e-06, cumulative = 6.07021e-05
DICPCG:  Solving for p_rgh, Initial residual = 0.00144508, Final residual = 7.14363e-05, No Iterations 18
time step continuity errors : sum local = 2.99533e-05, global = 1.99963e-07, cumulative = 6.09021e-05
DICPCG:  Solving for p_rgh, Initial residual = 0.00051981, Final residual = 9.85176e-08, No Iterations 126
time step continuity errors : sum local = 4.11383e-08, global = -2.45892e-09, cumulative = 6.08996e-05
smoothSolver:  Solving for epsilon, Initial residual = 0.0120503, Final residual = 6.90042e-07, No Iterations 8
smoothSolver:  Solving for k, Initial residual = 0.00886725, Final residual = 5.13561e-07, No Iterations 10
ExecutionTime = 3.94 s  ClockTime = 4 s

Courant Number mean: 0.307918 max: 0.921534
Interface Courant Number mean: 0.0231458 max: 0.868101
deltaT = 0.00286596
Time = 0.368474

smoothSolver:  Solving for alpha.water, Initial residual = 0.00948953, Final residual = 9.22554e-09, No Iterations 3
Phase-1 volume fraction = 0.124752  Min(alpha.water) = -6.28426e-05  Max(alpha.water) = 1
MULES: Correcting alpha.water
MULES: Correcting alpha.water
Phase-1 volume fraction = 0.124752  Min(alpha.water) = -0.00028823  Max(alpha.water) = 1.00083
DICPCG:  Solving for p_rgh, Initial residual = 0.0382516, Final residual = 0.00125707, No Iterations 3
time step continuity errors : sum local = 0.000599651, global = 1.62315e-06, cumulative = 6.25228e-05
DICPCG:  Solving for p_rgh, Initial residual = 0.00180137, Final residual = 8.8491e-05, No Iterations 20
time step continuity errors : sum local = 4.15765e-05, global = -2.70033e-07, cumulative = 6.22527e-05
DICPCG:  Solving for p_rgh, Initial residual = 0.000657764, Final residual = 9.58954e-08, No Iterations 126
time step continuity errors : sum local = 4.48367e-08, global = -1.27695e-09, cumulative = 6.22515e-05
smoothSolver:  Solving for epsilon, Initial residual = 0.01304, Final residual = 4.70653e-07, No Iterations 9
smoothSolver:  Solving for k, Initial residual = 0.00957857, Final residual = 8.91925e-07, No Iterations 10
ExecutionTime = 3.96 s  ClockTime = 4 s

Courant Number mean: 0.336169 max: 0.985503
Interface Courant Number mean: 0.0258015 max: 0.93052
deltaT = 0.00286596
Time = 0.37134

smoothSolver:  Solving for alpha.water, Initial residual = 0.00948995, Final residual = 8.48697e-09, No Iterations 3
Phase-1 volume fraction = 0.124752  Min(alpha.water) = -5.12242e-05  Max(alpha.water) = 1
MULES: Correcting alpha.water
MULES: Correcting alpha.water
Phase-1 volume fraction = 0.124752  Min(alpha.water) = -9.9551e-05  Max(alpha.water) = 1.0002
DICPCG:  Solving for p_rgh, Initial residual = 0.0381014, Final residual = 0.00126764, No Iterations 3
time step continuity errors : sum local = 0.000598087, global = 1.68556e-06, cumulative = 6.3937e-05
DICPCG:  Solving for p_rgh, Initial residual = 0.00182557, Final residual = 8.75841e-05, No Iterations 18
time step continuity errors : sum local = 4.07296e-05, global = -1.98595e-07, cumulative = 6.37384e-05
DICPCG:  Solving for p_rgh, Initial residual = 0.000659517, Final residual = 7.93358e-08, No Iterations 131
time step continuity errors : sum local = 3.6734e-08, global = -4.20695e-11, cumulative = 6.37384e-05
smoothSolver:  Solving for epsilon, Initial residual = 0.0128958, Final residual = 4.76326e-07, No Iterations 9
smoothSolver:  Solving for k, Initial residual = 0.00947609, Final residual = 8.9343e-07, No Iterations 10
ExecutionTime = 3.98 s  ClockTime = 4 s

Courant Number mean: 0.338703 max: 0.973054
Interface Courant Number mean: 0.0262411 max: 0.920473
deltaT = 0.00286596
Time = 0.374206

smoothSolver:  Solving for alpha.water, Initial residual = 0.00947657, Final residual = 7.94822e-09, No Iterations 3
Phase-1 volume fraction = 0.124752  Min(alpha.water) = -4.34316e-05  Max(alpha.water) = 1
MULES: Correcting alpha.water
MULES: Correcting alpha.water
Phase-1 volume fraction = 0.124752  Min(alpha.water) = -9.17632e-05  Max(alpha.water) = 1.00019
DICPCG:  Solving for p_rgh, Initial residual = 0.0379462, Final residual = 0.00127474, No Iterations 3
time step continuity errors : sum local = 0.000594082, global = 1.82032e-06, cumulative = 6.55587e-05
DICPCG:  Solving for p_rgh, Initial residual = 0.00182725, Final residual = 8.47409e-05, No Iterations 18
time step continuity errors : sum local = 3.89774e-05, global = 4.21252e-07, cumulative = 6.59799e-05
DICPCG:  Solving for p_rgh, Initial residual = 0.000655529, Final residual = 8.50123e-08, No Iterations 126
time step continuity errors : sum local = 3.89493e-08, global = -1.26437e-09, cumulative = 6.59787e-05
smoothSolver:  Solving for epsilon, Initial residual = 0.0127535, Final residual = 4.81742e-07, No Iterations 9
smoothSolver:  Solving for k, Initial residual = 0.00939188, Final residual = 8.9358e-07, No Iterations 10
ExecutionTime = 4 s  ClockTime = 4 s

Courant Number mean: 0.341164 max: 0.961162
Interface Courant Number mean: 0.0265243 max: 0.910407
deltaT = 0.00286596
Time = 0.377072

smoothSolver:  Solving for alpha.water, Initial residual = 0.00949541, Final residual = 7.38089e-09, No Iterations 3
Phase-1 volume fraction = 0.124752  Min(alpha.water) = -3.75258e-05  Max(alpha.water) = 1
MULES: Correcting alpha.water
MULES: Correcting alpha.water
Phase-1 volume fraction = 0.124752  Min(alpha.water) = -0.000244312  Max(alpha.water) = 1.00018
DICPCG:  Solving for p_rgh, Initial residual = 0.038233, Final residual = 0.00131429, No Iterations 3
time step continuity errors : sum local = 0.000604621, global = 1.42749e-06, cumulative = 6.74062e-05
DICPCG:  Solving for p_rgh, Initial residual = 0.00187255, Final residual = 8.36946e-05, No Iterations 19
time step continuity errors : sum local = 3.80596e-05, global = -7.28893e-07, cumulative = 6.66773e-05
DICPCG:  Solving for p_rgh, Initial residual = 0.000683918, Final residual = 8.68268e-08, No Iterations 131
time step continuity errors : sum local = 3.93198e-08, global = -7.89595e-11, cumulative = 6.66772e-05
smoothSolver:  Solving for epsilon, Initial residual = 0.012568, Final residual = 4.86892e-07, No Iterations 9
smoothSolver:  Solving for k, Initial residual = 0.00928029, Final residual = 8.92202e-07, No Iterations 10
ExecutionTime = 4.02 s  ClockTime = 4 s

Courant Number mean: 0.343603 max: 0.949382
Interface Courant Number mean: 0.0261107 max: 0.900307
deltaT = 0.00286596
Time = 0.379938

smoothSolver:  Solving for alpha.water, Initial residual = 0.00953431, Final residual = 6.76336e-09, No Iterations 3
Phase-1 volume fraction = 0.124752  Min(alpha.water) = -3.22506e-05  Max(alpha.water) = 1
MULES: Correcting alpha.water
MULES: Correcting alpha.water
Phase-1 volume fraction = 0.124752  Min(alpha.water) = -0.000103514  Max(alpha.water) = 1.00027
DICPCG:  Solving for p_rgh, Initial residual = 0.0338465, Final residual = 0.00120322, No Iterations 3
time step continuity errors : sum local = 0.0005532, global = 2.04383e-06, cumulative = 6.8721e-05
DICPCG:  Solving for p_rgh, Initial residual = 0.00172222, Final residual = 8.28606e-05, No Iterations 18
time step continuity errors : sum local = 3.77974e-05, global = -6.65231e-08, cumulative = 6.86545e-05
DICPCG:  Solving for p_rgh, Initial residual = 0.000619589, Final residual = 9.13103e-08, No Iterations 129
time step continuity errors : sum local = 4.14891e-08, global = 1.78535e-10, cumulative = 6.86547e-05
smoothSolver:  Solving for epsilon, Initial residual = 0.012407, Final residual = 4.91764e-07, No Iterations 9
smoothSolver:  Solving for k, Initial residual = 0.00919716, Final residual = 8.90591e-07, No Iterations 10
ExecutionTime = 4.05 s  ClockTime = 4 s

Courant Number mean: 0.346031 max: 0.937707
Interface Courant Number mean: 0.0261378 max: 0.876314
deltaT = 0.00286596
Time = 0.382804

smoothSolver:  Solving for alpha.water, Initial residual = 0.00960162, Final residual = 6.28584e-09, No Iterations 3
Phase-1 volume fraction = 0.124752  Min(alpha.water) = -2.75912e-05  Max(alpha.water) = 1
MULES: Correcting alpha.water
MULES: Correcting alpha.water
Phase-1 volume fraction = 0.124752  Min(alpha.water) = -0.00046909  Max(alpha.water) = 1.00057
DICPCG:  Solving for p_rgh, Initial residual = 0.0400783, Final residual = 0.00126928, No Iterations 3
time step continuity errors : sum local = 0.000590627, global = 1.7178e-06, cumulative = 7.03725e-05
DICPCG:  Solving for p_rgh, Initial residual = 0.00181404, Final residual = 9.06269e-05, No Iterations 18
time step continuity errors : sum local = 4.15268e-05, global = -1.25938e-07, cumulative = 7.02465e-05
DICPCG:  Solving for p_rgh, Initial residual = 0.000651404, Final residual = 9.32759e-08, No Iterations 128
time step continuity errors : sum local = 4.25873e-08, global = 4.53092e-10, cumulative = 7.0247e-05
smoothSolver:  Solving for epsilon, Initial residual = 0.0122843, Final residual = 4.98311e-07, No Iterations 9
smoothSolver:  Solving for k, Initial residual = 0.00914164, Final residual = 8.95389e-07, No Iterations 10
ExecutionTime = 4.07 s  ClockTime = 4 s

Courant Number mean: 0.348472 max: 0.926128
Interface Courant Number mean: 0.0264763 max: 0.864165
deltaT = 0.00286596
Time = 0.38567

smoothSolver:  Solving for alpha.water, Initial residual = 0.00964263, Final residual = 5.84601e-09, No Iterations 3
Phase-1 volume fraction = 0.124752  Min(alpha.water) = -0.000351521  Max(alpha.water) = 1
MULES: Correcting alpha.water
MULES: Correcting alpha.water
Phase-1 volume fraction = 0.124752  Min(alpha.water) = -0.000351521  Max(alpha.water) = 1.00069
DICPCG:  Solving for p_rgh, Initial residual = 0.0408136, Final residual = 0.0013892, No Iterations 3
time step continuity errors : sum local = 0.000639005, global = 1.72781e-06, cumulative = 7.19748e-05
DICPCG:  Solving for p_rgh, Initial residual = 0.00199663, Final residual = 9.01408e-05, No Iterations 19
time step continuity errors : sum local = 4.0828e-05, global = -2.33799e-07, cumulative = 7.1741e-05
DICPCG:  Solving for p_rgh, Initial residual = 0.000720191, Final residual = 9.34828e-08, No Iterations 129
time step continuity errors : sum local = 4.21768e-08, global = 1.65454e-10, cumulative = 7.17412e-05
smoothSolver:  Solving for epsilon, Initial residual = 0.0122091, Final residual = 5.04208e-07, No Iterations 9
smoothSolver:  Solving for k, Initial residual = 0.00911028, Final residual = 8.9632e-07, No Iterations 10
ExecutionTime = 4.09 s  ClockTime = 4 s

Courant Number mean: 0.350926 max: 0.914639
Interface Courant Number mean: 0.0265105 max: 0.852323
deltaT = 0.00286596
Time = 0.388536

smoothSolver:  Solving for alpha.water, Initial residual = 0.00963925, Final residual = 5.38985e-09, No Iterations 3
Phase-1 volume fraction = 0.124752  Min(alpha.water) = -0.000299417  Max(alpha.water) = 1
MULES: Correcting alpha.water
MULES: Correcting alpha.water
Phase-1 volume fraction = 0.124752  Min(alpha.water) = -0.000299417  Max(alpha.water) = 1.00015
DICPCG:  Solving for p_rgh, Initial residual = 0.0419923, Final residual = 0.00141736, No Iterations 3
time step continuity errors : sum local = 0.000646716, global = 1.74707e-06, cumulative = 7.34882e-05
DICPCG:  Solving for p_rgh, Initial residual = 0.00202908, Final residual = 9.28169e-05, No Iterations 18
time step continuity errors : sum local = 4.17238e-05, global = 2.72315e-07, cumulative = 7.37606e-05
DICPCG:  Solving for p_rgh, Initial residual = 0.000714388, Final residual = 9.42896e-08, No Iterations 128
time step continuity errors : sum local = 4.22268e-08, global = -6.849e-10, cumulative = 7.37599e-05
smoothSolver:  Solving for epsilon, Initial residual = 0.012126, Final residual = 5.09626e-07, No Iterations 9
smoothSolver:  Solving for k, Initial residual = 0.00907234, Final residual = 8.95061e-07, No Iterations 10
ExecutionTime = 4.11 s  ClockTime = 4 s

Courant Number mean: 0.353327 max: 0.903228
Interface Courant Number mean: 0.0262131 max: 0.839952
deltaT = 0.00286596
Time = 0.391402

smoothSolver:  Solving for alpha.water, Initial residual = 0.00965325, Final residual = 4.95928e-09, No Iterations 3
Phase-1 volume fraction = 0.124752  Min(alpha.water) = -0.000251148  Max(alpha.water) = 1
MULES: Correcting alpha.water
MULES: Correcting alpha.water
Phase-1 volume fraction = 0.124752  Min(alpha.water) = -0.00043626  Max(alpha.water) = 1.00014
DICPCG:  Solving for p_rgh, Initial residual = 0.0430816, Final residual = 0.00139575, No Iterations 3
time step continuity errors : sum local = 0.000630963, global = 1.53256e-06, cumulative = 7.52924e-05
DICPCG:  Solving for p_rgh, Initial residual = 0.00201348, Final residual = 9.47963e-05, No Iterations 19
time step continuity errors : sum local = 4.22426e-05, global = -1.97916e-07, cumulative = 7.50945e-05
DICPCG:  Solving for p_rgh, Initial residual = 0.000736812, Final residual = 8.42422e-08, No Iterations 130
time step continuity errors : sum local = 3.74019e-08, global = 6.68749e-10, cumulative = 7.50952e-05
smoothSolver:  Solving for epsilon, Initial residual = 0.0120995, Final residual = 5.15155e-07, No Iterations 9
smoothSolver:  Solving for k, Initial residual = 0.00905467, Final residual = 8.92994e-07, No Iterations 10
ExecutionTime = 4.13 s  ClockTime = 4 s

Courant Number mean: 0.35573 max: 0.891902
Interface Courant Number mean: 0.0262674 max: 0.828474
deltaT = 0.00286596
Time = 0.394268

smoothSolver:  Solving for alpha.water, Initial residual = 0.0096994, Final residual = 4.60733e-09, No Iterations 3
Phase-1 volume fraction = 0.124752  Min(alpha.water) = -0.000208408  Max(alpha.water) = 1
MULES: Correcting alpha.water
MULES: Correcting alpha.water
Phase-1 volume fraction = 0.124752  Min(alpha.water) = -0.000711815  Max(alpha.water) = 1.00026
DICPCG:  Solving for p_rgh, Initial residual = 0.0375318, Final residual = 0.00132581, No Iterations 3
time step continuity errors : sum local = 0.000593863, global = 1.68973e-06, cumulative = 7.67849e-05
DICPCG:  Solving for p_rgh, Initial residual = 0.00189275, Final residual = 8.97476e-05, No Iterations 18
time step continuity errors : sum local = 3.98311e-05, global = -7.84069e-07, cumulative = 7.60008e-05
DICPCG:  Solving for p_rgh, Initial residual = 0.000676055, Final residual = 9.40259e-08, No Iterations 129
time step continuity errors : sum local = 4.15756e-08, global = 4.55714e-10, cumulative = 7.60013e-05
smoothSolver:  Solving for epsilon, Initial residual = 0.012099, Final residual = 5.2027e-07, No Iterations 9
smoothSolver:  Solving for k, Initial residual = 0.00905709, Final residual = 8.89656e-07, No Iterations 10
ExecutionTime = 4.16 s  ClockTime = 4 s

Courant Number mean: 0.358166 max: 0.880635
Interface Courant Number mean: 0.0264988 max: 0.817154
deltaT = 0.00286596
Time = 0.397134

smoothSolver:  Solving for alpha.water, Initial residual = 0.00974176, Final residual = 4.28365e-09, No Iterations 3
Phase-1 volume fraction = 0.124752  Min(alpha.water) = -0.000171641  Max(alpha.water) = 1
MULES: Correcting alpha.water
MULES: Correcting alpha.water
Phase-1 volume fraction = 0.124752  Min(alpha.water) = -0.000264815  Max(alpha.water) = 1.00056
DICPCG:  Solving for p_rgh, Initial residual = 0.0407342, Final residual = 0.00133744, No Iterations 3
time step continuity errors : sum local = 0.000607189, global = 2.11809e-06, cumulative = 7.81194e-05
DICPCG:  Solving for p_rgh, Initial residual = 0.00192925, Final residual = 9.23763e-05, No Iterations 18
time step continuity errors : sum local = 4.13583e-05, global = 1.16007e-07, cumulative = 7.82354e-05
DICPCG:  Solving for p_rgh, Initial residual = 0.00069885, Final residual = 9.4982e-08, No Iterations 129
time step continuity errors : sum local = 4.23729e-08, global = 6.10192e-10, cumulative = 7.8236e-05
smoothSolver:  Solving for epsilon, Initial residual = 0.0121019, Final residual = 5.24785e-07, No Iterations 9
smoothSolver:  Solving for k, Initial residual = 0.00905796, Final residual = 8.84275e-07, No Iterations 10
ExecutionTime = 4.18 s  ClockTime = 4 s

Courant Number mean: 0.36062 max: 0.869325
Interface Courant Number mean: 0.0261873 max: 0.805416
deltaT = 0.00286596
Time = 0.4

smoothSolver:  Solving for alpha.water, Initial residual = 0.00970372, Final residual = 3.97431e-09, No Iterations 3
Phase-1 volume fraction = 0.124752  Min(alpha.water) = -0.000140615  Max(alpha.water) = 1
MULES: Correcting alpha.water
MULES: Correcting alpha.water
Phase-1 volume fraction = 0.124752  Min(alpha.water) = -0.000272136  Max(alpha.water) = 1.0005
DICPCG:  Solving for p_rgh, Initial residual = 0.0434397, Final residual = 0.00150836, No Iterations 3
time step continuity errors : sum local = 0.000678905, global = 1.58187e-06, cumulative = 7.98179e-05
DICPCG:  Solving for p_rgh, Initial residual = 0.00214673, Final residual = 9.66136e-05, No Iterations 19
time step continuity errors : sum local = 4.28525e-05, global = -5.80082e-07, cumulative = 7.92378e-05
DICPCG:  Solving for p_rgh, Initial residual = 0.000772697, Final residual = 8.95244e-08, No Iterations 130
time step continuity errors : sum local = 3.95575e-08, global = 1.08132e-09, cumulative = 7.92389e-05
smoothSolver:  Solving for epsilon, Initial residual = 0.0121472, Final residual = 5.29382e-07, No Iterations 9
smoothSolver:  Solving for k, Initial residual = 0.00907892, Final residual = 8.79111e-07, No Iterations 10
ExecutionTime = 4.22 s  ClockTime = 4 s

End

Finalising parallel run
