/*---------------------------------------------------------------------------*\
  =========                 |
  \\      /  F ield         | OpenFOAM: The Open Source CFD Toolbox
   \\    /   O peration     | Website:  https://openfoam.org
    \\  /    A nd           | Version:  7
     \\/     M anipulation  |
\*---------------------------------------------------------------------------*/
Build  : 7-83cd285f0e3f
Exec   : interFoam
Date   : Mar 09 2020
Time   : 20:53:53
Host   : "node003"
PID    : 13106
I/O    : uncollated
Case   : /home/ajgay/Working/damBreak/damBreak
nProcs : 1
fileModificationChecking : Monitoring run-time modified files using timeStampMaster (fileModificationSkew 10)
allowSystemOperations : Allowing user-supplied system call operations

// * * * * * * * * * * * * * * * * * * * * * * * * * * * * * * * * * * * * * //
Create time

Create mesh for time = 0


PIMPLE: No convergence criteria found


PIMPLE: Operating solver in transient mode with 1 outer corrector
PIMPLE: Operating solver in PISO mode


Reading field p_rgh

Reading field U

Reading/calculating face flux field phi

Reading transportProperties

Selecting incompressible transport model Newtonian
Selecting incompressible transport model Newtonian
Selecting turbulence model type RAS
Selecting RAS turbulence model kEpsilon
RAS
{
    RASModel        kEpsilon;
    turbulence      on;
    printCoeffs     on;
    Cmu             0.09;
    C1              1.44;
    C2              1.92;
    C3              0;
    sigmak          1;
    sigmaEps        1.3;
}


Reading g

Reading hRef
Calculating field g.h

No MRF models present

No finite volume options present
DICPCG:  Solving for pcorr, Initial residual = 0, Final residual = 0, No Iterations 0
time step continuity errors : sum local = 0, global = 0, cumulative = 0
Courant Number mean: 0 max: 0

Starting time loop

Courant Number mean: 0 max: 0
Interface Courant Number mean: 0 max: 0
deltaT = 0.00119048
Time = 0.00119048

smoothSolver:  Solving for alpha.water, Initial residual = 0, Final residual = 0, No Iterations 0
Phase-1 volume fraction = 0.130194  Min(alpha.water) = 0  Max(alpha.water) = 1
MULES: Correcting alpha.water
MULES: Correcting alpha.water
Phase-1 volume fraction = 0.130194  Min(alpha.water) = 0  Max(alpha.water) = 1
DICPCG:  Solving for p_rgh, Initial residual = 1, Final residual = 0.0421443, No Iterations 3
time step continuity errors : sum local = 0.000350496, global = -5.70682e-10, cumulative = -5.70682e-10
DICPCG:  Solving for p_rgh, Initial residual = 0.00452631, Final residual = 0.000197638, No Iterations 12
time step continuity errors : sum local = 1.63307e-05, global = -6.25215e-06, cumulative = -6.25272e-06
DICPCG:  Solving for p_rgh, Initial residual = 0.000284351, Final residual = 6.57438e-08, No Iterations 52
time step continuity errors : sum local = 1.13306e-08, global = 1.33756e-09, cumulative = -6.25139e-06
smoothSolver:  Solving for epsilon, Initial residual = 0.0207474, Final residual = 2.77402e-07, No Iterations 3
smoothSolver:  Solving for k, Initial residual = 1, Final residual = 2.02272e-07, No Iterations 5
ExecutionTime = 0.05 s  ClockTime = 0 s

Courant Number mean: 0.000573302 max: 0.00515206
Interface Courant Number mean: 0 max: 0
deltaT = 0.00139456
Time = 0.00258503

smoothSolver:  Solving for alpha.water, Initial residual = 3.9665e-05, Final residual = 3.23077e-11, No Iterations 1
Phase-1 volume fraction = 0.130194  Min(alpha.water) = 0  Max(alpha.water) = 1
MULES: Correcting alpha.water
MULES: Correcting alpha.water
Phase-1 volume fraction = 0.130194  Min(alpha.water) = -4.94208e-15  Max(alpha.water) = 1
DICPCG:  Solving for p_rgh, Initial residual = 0.000833205, Final residual = 3.66401e-05, No Iterations 8
time step continuity errors : sum local = 7.53535e-06, global = 1.45514e-06, cumulative = -4.79624e-06
DICPCG:  Solving for p_rgh, Initial residual = 8.57991e-05, Final residual = 3.66371e-06, No Iterations 31
time step continuity errors : sum local = 7.57401e-07, global = -7.17766e-09, cumulative = -4.80342e-06
DICPCG:  Solving for p_rgh, Initial residual = 1.90297e-05, Final residual = 8.43231e-08, No Iterations 40
time step continuity errors : sum local = 1.73301e-08, global = 1.77647e-09, cumulative = -4.80165e-06
smoothSolver:  Solving for epsilon, Initial residual = 0.00336391, Final residual = 7.97044e-07, No Iterations 2
smoothSolver:  Solving for k, Initial residual = 0.441355, Final residual = 5.7834e-07, No Iterations 4
ExecutionTime = 0.07 s  ClockTime = 0 s

Courant Number mean: 0.00143986 max: 0.0121312
Interface Courant Number mean: 0 max: 0
deltaT = 0.001635
Time = 0.00422003

smoothSolver:  Solving for alpha.water, Initial residual = 8.6019e-05, Final residual = 4.47778e-10, No Iterations 1
Phase-1 volume fraction = 0.130194  Min(alpha.water) = -1.37551e-20  Max(alpha.water) = 1
MULES: Correcting alpha.water
MULES: Correcting alpha.water
Phase-1 volume fraction = 0.130194  Min(alpha.water) = -9.59604e-14  Max(alpha.water) = 1
DICPCG:  Solving for p_rgh, Initial residual = 0.00118111, Final residual = 3.37456e-05, No Iterations 8
time step continuity errors : sum local = 9.03845e-06, global = -7.19743e-08, cumulative = -4.87362e-06
DICPCG:  Solving for p_rgh, Initial residual = 8.35473e-05, Final residual = 3.05298e-06, No Iterations 13
time step continuity errors : sum local = 8.26079e-07, global = -8.22252e-08, cumulative = -4.95584e-06
DICPCG:  Solving for p_rgh, Initial residual = 2.05919e-05, Final residual = 8.29016e-08, No Iterations 40
time step continuity errors : sum local = 2.23135e-08, global = 1.07142e-09, cumulative = -4.95477e-06
smoothSolver:  Solving for epsilon, Initial residual = 0.00345931, Final residual = 6.3326e-08, No Iterations 3
smoothSolver:  Solving for k, Initial residual = 0.250102, Final residual = 7.61376e-07, No Iterations 4
ExecutionTime = 0.08 s  ClockTime = 0 s

Courant Number mean: 0.00275163 max: 0.0246116
Interface Courant Number mean: 1.08206e-05 max: 0.0246115
deltaT = 0.0019075
Time = 0.00612753

smoothSolver:  Solving for alpha.water, Initial residual = 0.000156087, Final residual = 3.44132e-09, No Iterations 1
Phase-1 volume fraction = 0.130194  Min(alpha.water) = 0  Max(alpha.water) = 1
MULES: Correcting alpha.water
MULES: Correcting alpha.water
Phase-1 volume fraction = 0.130194  Min(alpha.water) = -1.28925e-12  Max(alpha.water) = 1
DICPCG:  Solving for p_rgh, Initial residual = 0.00175517, Final residual = 8.00882e-05, No Iterations 3
time step continuity errors : sum local = 2.76564e-05, global = 1.94101e-08, cumulative = -4.93536e-06
DICPCG:  Solving for p_rgh, Initial residual = 0.000130204, Final residual = 3.53208e-06, No Iterations 13
time step continuity errors : sum local = 1.22191e-06, global = 1.9009e-09, cumulative = -4.93346e-06
DICPCG:  Solving for p_rgh, Initial residual = 2.57278e-05, Final residual = 9.80092e-08, No Iterations 40
time step continuity errors : sum local = 3.40976e-08, global = -4.91764e-10, cumulative = -4.93395e-06
smoothSolver:  Solving for epsilon, Initial residual = 0.00364238, Final residual = 1.27836e-07, No Iterations 3
smoothSolver:  Solving for k, Initial residual = 0.181391, Final residual = 1.31101e-07, No Iterations 5
ExecutionTime = 0.1 s  ClockTime = 0 s

Courant Number mean: 0.00464784 max: 0.0424634
Interface Courant Number mean: 7.78534e-05 max: 0.0424632
deltaT = 0.00219362
Time = 0.00832115

smoothSolver:  Solving for alpha.water, Initial residual = 0.000250795, Final residual = 9.26666e-15, No Iterations 2
Phase-1 volume fraction = 0.130194  Min(alpha.water) = 0  Max(alpha.water) = 1
MULES: Correcting alpha.water
MULES: Correcting alpha.water
Phase-1 volume fraction = 0.130194  Min(alpha.water) = -7.16343e-12  Max(alpha.water) = 1
DICPCG:  Solving for p_rgh, Initial residual = 0.00232731, Final residual = 0.000115009, No Iterations 1
time step continuity errors : sum local = 5.00707e-05, global = 1.41727e-07, cumulative = -4.79223e-06
DICPCG:  Solving for p_rgh, Initial residual = 0.000145164, Final residual = 6.63623e-06, No Iterations 10
time step continuity errors : sum local = 2.88899e-06, global = -4.93622e-09, cumulative = -4.79716e-06
DICPCG:  Solving for p_rgh, Initial residual = 4.09757e-05, Final residual = 9.25308e-08, No Iterations 46
time step continuity errors : sum local = 4.06292e-08, global = -3.54168e-10, cumulative = -4.79752e-06
smoothSolver:  Solving for epsilon, Initial residual = 0.00386259, Final residual = 2.38327e-07, No Iterations 3
smoothSolver:  Solving for k, Initial residual = 0.145127, Final residual = 2.37265e-07, No Iterations 5
ExecutionTime = 0.11 s  ClockTime = 0 s

Courant Number mean: 0.00724458 max: 0.064518
Interface Courant Number mean: 0.00020675 max: 0.0645177
deltaT = 0.00260493
Time = 0.0109261

smoothSolver:  Solving for alpha.water, Initial residual = 0.000394059, Final residual = 7.00615e-14, No Iterations 2
Phase-1 volume fraction = 0.130194  Min(alpha.water) = 0  Max(alpha.water) = 1
MULES: Correcting alpha.water
MULES: Correcting alpha.water
Phase-1 volume fraction = 0.130194  Min(alpha.water) = -5.94361e-11  Max(alpha.water) = 1
DICPCG:  Solving for p_rgh, Initial residual = 0.00300467, Final residual = 0.000145479, No Iterations 1
time step continuity errors : sum local = 8.38738e-05, global = 2.24919e-07, cumulative = -4.5726e-06
DICPCG:  Solving for p_rgh, Initial residual = 0.00017647, Final residual = 7.95554e-06, No Iterations 10
time step continuity errors : sum local = 4.58643e-06, global = 1.66424e-07, cumulative = -4.40617e-06
DICPCG:  Solving for p_rgh, Initial residual = 5.19655e-05, Final residual = 9.17071e-08, No Iterations 47
time step continuity errors : sum local = 5.34126e-08, global = 1.44287e-09, cumulative = -4.40473e-06
smoothSolver:  Solving for epsilon, Initial residual = 0.0042547, Final residual = 5.19297e-07, No Iterations 3
smoothSolver:  Solving for k, Initial residual = 0.127403, Final residual = 5.40533e-07, No Iterations 5
ExecutionTime = 0.13 s  ClockTime = 0 s

Courant Number mean: 0.0113192 max: 0.0951277
Interface Courant Number mean: 0.000368982 max: 0.0951277
deltaT = 0.00300569
Time = 0.0139318

smoothSolver:  Solving for alpha.water, Initial residual = 0.000583171, Final residual = 1.21703e-11, No Iterations 2
Phase-1 volume fraction = 0.130194  Min(alpha.water) = 0  Max(alpha.water) = 1
MULES: Correcting alpha.water
MULES: Correcting alpha.water
Phase-1 volume fraction = 0.130194  Min(alpha.water) = -2.76024e-10  Max(alpha.water) = 1
DICPCG:  Solving for p_rgh, Initial residual = 0.00362668, Final residual = 0.000177067, No Iterations 1
time step continuity errors : sum local = 0.000128729, global = 2.20712e-07, cumulative = -4.18402e-06
DICPCG:  Solving for p_rgh, Initial residual = 0.000209512, Final residual = 7.72019e-06, No Iterations 11
time step continuity errors : sum local = 5.61083e-06, global = 2.6294e-07, cumulative = -3.92108e-06
DICPCG:  Solving for p_rgh, Initial residual = 6.06975e-05, Final residual = 9.11771e-08, No Iterations 47
time step continuity errors : sum local = 6.70466e-08, global = 3.51122e-09, cumulative = -3.91757e-06
smoothSolver:  Solving for epsilon, Initial residual = 0.00455234, Final residual = 9.55937e-07, No Iterations 3
smoothSolver:  Solving for k, Initial residual = 0.113133, Final residual = 9.98059e-07, No Iterations 5
ExecutionTime = 0.14 s  ClockTime = 0 s

Courant Number mean: 0.0167127 max: 0.130296
Interface Courant Number mean: 0.0006162 max: 0.130296
deltaT = 0.00360682
Time = 0.0175386

smoothSolver:  Solving for alpha.water, Initial residual = 0.000873783, Final residual = 1.86969e-10, No Iterations 2
Phase-1 volume fraction = 0.130194  Min(alpha.water) = 0  Max(alpha.water) = 1
MULES: Correcting alpha.water
MULES: Correcting alpha.water
Phase-1 volume fraction = 0.130194  Min(alpha.water) = -9.58943e-10  Max(alpha.water) = 1
DICPCG:  Solving for p_rgh, Initial residual = 0.00432814, Final residual = 8.42409e-05, No Iterations 2
time step continuity errors : sum local = 8.18391e-05, global = 1.63097e-07, cumulative = -3.75447e-06
DICPCG:  Solving for p_rgh, Initial residual = 0.000127342, Final residual = 5.79344e-06, No Iterations 12
time step continuity errors : sum local = 5.62658e-06, global = 1.66957e-07, cumulative = -3.58751e-06
DICPCG:  Solving for p_rgh, Initial residual = 4.5773e-05, Final residual = 9.50946e-08, No Iterations 45
time step continuity errors : sum local = 9.36152e-08, global = 4.34793e-09, cumulative = -3.58317e-06
smoothSolver:  Solving for epsilon, Initial residual = 0.00508882, Final residual = 2.96186e-07, No Iterations 4
smoothSolver:  Solving for k, Initial residual = 0.107445, Final residual = 4.95929e-07, No Iterations 6
ExecutionTime = 0.16 s  ClockTime = 0 s

Courant Number mean: 0.0251984 max: 0.181605
Interface Courant Number mean: 0.0009803 max: 0.181605
deltaT = 0.00405768
Time = 0.0215963

smoothSolver:  Solving for alpha.water, Initial residual = 0.00121036, Final residual = 1.21631e-09, No Iterations 2
Phase-1 volume fraction = 0.130194  Min(alpha.water) = 0  Max(alpha.water) = 1
MULES: Correcting alpha.water
MULES: Correcting alpha.water
Phase-1 volume fraction = 0.130194  Min(alpha.water) = -3.67491e-09  Max(alpha.water) = 1
DICPCG:  Solving for p_rgh, Initial residual = 0.00496626, Final residual = 8.61367e-05, No Iterations 2
time step continuity errors : sum local = 0.000100864, global = 2.00052e-07, cumulative = -3.38311e-06
DICPCG:  Solving for p_rgh, Initial residual = 0.000130047, Final residual = 6.45624e-06, No Iterations 12
time step continuity errors : sum local = 7.55296e-06, global = 3.71152e-07, cumulative = -3.01196e-06
DICPCG:  Solving for p_rgh, Initial residual = 4.84304e-05, Final residual = 9.22034e-08, No Iterations 44
time step continuity errors : sum local = 1.09543e-07, global = 4.3578e-09, cumulative = -3.0076e-06
smoothSolver:  Solving for epsilon, Initial residual = 0.00533994, Final residual = 5.17483e-07, No Iterations 4
smoothSolver:  Solving for k, Initial residual = 0.0979336, Final residual = 8.47105e-07, No Iterations 6
ExecutionTime = 0.17 s  ClockTime = 0 s

Courant Number mean: 0.034684 max: 0.227651
Interface Courant Number mean: 0.00143929 max: 0.227651
deltaT = 0.00473396
Time = 0.0263302

smoothSolver:  Solving for alpha.water, Initial residual = 0.00170239, Final residual = 7.27819e-09, No Iterations 2
Phase-1 volume fraction = 0.130194  Min(alpha.water) = 0  Max(alpha.water) = 1
MULES: Correcting alpha.water
MULES: Correcting alpha.water
Phase-1 volume fraction = 0.130194  Min(alpha.water) = -6.54136e-08  Max(alpha.water) = 1
DICPCG:  Solving for p_rgh, Initial residual = 0.00590347, Final residual = 9.68246e-05, No Iterations 2
time step continuity errors : sum local = 0.000144028, global = 1.79793e-07, cumulative = -2.82781e-06
DICPCG:  Solving for p_rgh, Initial residual = 0.00014451, Final residual = 5.67526e-06, No Iterations 13
time step continuity errors : sum local = 8.42468e-06, global = 2.82501e-07, cumulative = -2.54531e-06
DICPCG:  Solving for p_rgh, Initial residual = 5.26953e-05, Final residual = 8.69991e-08, No Iterations 44
time step continuity errors : sum local = 1.31648e-07, global = -4.55017e-09, cumulative = -2.54986e-06
smoothSolver:  Solving for epsilon, Initial residual = 0.00582354, Final residual = 2.08529e-07, No Iterations 5
smoothSolver:  Solving for k, Initial residual = 0.0953407, Final residual = 4.83467e-07, No Iterations 7
ExecutionTime = 0.19 s  ClockTime = 0 s

Courant Number mean: 0.0487424 max: 0.293392
Interface Courant Number mean: 0.00203712 max: 0.293392
deltaT = 0.00473396
Time = 0.0310642

smoothSolver:  Solving for alpha.water, Initial residual = 0.002028, Final residual = 5.10521e-14, No Iterations 3
Phase-1 volume fraction = 0.130194  Min(alpha.water) = 0  Max(alpha.water) = 1
MULES: Correcting alpha.water
MULES: Correcting alpha.water
Phase-1 volume fraction = 0.130194  Min(alpha.water) = -2.11739e-07  Max(alpha.water) = 1
DICPCG:  Solving for p_rgh, Initial residual = 0.0066707, Final residual = 0.000104208, No Iterations 2
time step continuity errors : sum local = 0.00015597, global = -4.39168e-08, cumulative = -2.59378e-06
DICPCG:  Solving for p_rgh, Initial residual = 0.000154316, Final residual = 6.59219e-06, No Iterations 13
time step continuity errors : sum local = 9.83406e-06, global = 5.79235e-07, cumulative = -2.01454e-06
DICPCG:  Solving for p_rgh, Initial residual = 5.31224e-05, Final residual = 9.99894e-08, No Iterations 45
time step continuity errors : sum local = 1.52132e-07, global = -1.63796e-08, cumulative = -2.03092e-06
smoothSolver:  Solving for epsilon, Initial residual = 0.00565086, Final residual = 1.93307e-07, No Iterations 5
smoothSolver:  Solving for k, Initial residual = 0.0821166, Final residual = 3.84868e-07, No Iterations 7
ExecutionTime = 0.2 s  ClockTime = 0 s

Courant Number mean: 0.0569324 max: 0.328957
Interface Courant Number mean: 0.0023465 max: 0.328144
deltaT = 0.00473396
Time = 0.0357981

smoothSolver:  Solving for alpha.water, Initial residual = 0.00234942, Final residual = 1.39754e-13, No Iterations 3
Phase-1 volume fraction = 0.130194  Min(alpha.water) = 0  Max(alpha.water) = 1
MULES: Correcting alpha.water
MULES: Correcting alpha.water
Phase-1 volume fraction = 0.130194  Min(alpha.water) = -4.4929e-07  Max(alpha.water) = 1
DICPCG:  Solving for p_rgh, Initial residual = 0.00773019, Final residual = 0.000115651, No Iterations 2
time step continuity errors : sum local = 0.000173907, global = -2.15987e-07, cumulative = -2.24691e-06
DICPCG:  Solving for p_rgh, Initial residual = 0.000169518, Final residual = 7.53203e-06, No Iterations 13
time step continuity errors : sum local = 1.12716e-05, global = 9.0928e-07, cumulative = -1.33763e-06
DICPCG:  Solving for p_rgh, Initial residual = 5.50535e-05, Final residual = 9.75637e-08, No Iterations 48
time step continuity errors : sum local = 1.49157e-07, global = -2.07487e-08, cumulative = -1.35838e-06
smoothSolver:  Solving for epsilon, Initial residual = 0.00600701, Final residual = 1.87638e-07, No Iterations 5
smoothSolver:  Solving for k, Initial residual = 0.0736065, Final residual = 3.1775e-07, No Iterations 7
ExecutionTime = 0.22 s  ClockTime = 0 s

Courant Number mean: 0.065029 max: 0.355209
Interface Courant Number mean: 0.00278493 max: 0.35121
deltaT = 0.00473396
Time = 0.0405321

smoothSolver:  Solving for alpha.water, Initial residual = 0.00266626, Final residual = 2.54663e-11, No Iterations 3
Phase-1 volume fraction = 0.130194  Min(alpha.water) = 0  Max(alpha.water) = 1
MULES: Correcting alpha.water
MULES: Correcting alpha.water
Phase-1 volume fraction = 0.130194  Min(alpha.water) = -7.33941e-07  Max(alpha.water) = 1
DICPCG:  Solving for p_rgh, Initial residual = 0.00903527, Final residual = 0.000439993, No Iterations 1
time step continuity errors : sum local = 0.000664283, global = -2.22992e-07, cumulative = -1.58137e-06
DICPCG:  Solving for p_rgh, Initial residual = 0.000530749, Final residual = 2.19272e-05, No Iterations 11
time step continuity errors : sum local = 3.28731e-05, global = 6.07074e-06, cumulative = 4.48937e-06
DICPCG:  Solving for p_rgh, Initial residual = 0.000166534, Final residual = 8.98851e-08, No Iterations 51
time step continuity errors : sum local = 1.38053e-07, global = -1.23482e-08, cumulative = 4.47703e-06
smoothSolver:  Solving for epsilon, Initial residual = 0.00667651, Final residual = 1.90424e-07, No Iterations 5
smoothSolver:  Solving for k, Initial residual = 0.0679366, Final residual = 2.79846e-07, No Iterations 7
ExecutionTime = 0.23 s  ClockTime = 0 s

Courant Number mean: 0.0730492 max: 0.383058
Interface Courant Number mean: 0.00340223 max: 0.361104
deltaT = 0.00473396
Time = 0.045266

smoothSolver:  Solving for alpha.water, Initial residual = 0.00298107, Final residual = 1.34652e-10, No Iterations 3
Phase-1 volume fraction = 0.130194  Min(alpha.water) = 0  Max(alpha.water) = 1
MULES: Correcting alpha.water
MULES: Correcting alpha.water
Phase-1 volume fraction = 0.130194  Min(alpha.water) = -1.01066e-06  Max(alpha.water) = 1
DICPCG:  Solving for p_rgh, Initial residual = 0.0105291, Final residual = 0.000506607, No Iterations 1
time step continuity errors : sum local = 0.000767526, global = -1.88208e-06, cumulative = 2.59495e-06
DICPCG:  Solving for p_rgh, Initial residual = 0.000613563, Final residual = 2.88283e-05, No Iterations 11
time step continuity errors : sum local = 4.32905e-05, global = 8.50763e-06, cumulative = 1.11026e-05
DICPCG:  Solving for p_rgh, Initial residual = 0.0001927, Final residual = 9.56246e-08, No Iterations 52
time step continuity errors : sum local = 1.47431e-07, global = -1.7051e-08, cumulative = 1.10855e-05
smoothSolver:  Solving for epsilon, Initial residual = 0.00738534, Final residual = 2.03478e-07, No Iterations 5
smoothSolver:  Solving for k, Initial residual = 0.0644105, Final residual = 2.65766e-07, No Iterations 7
ExecutionTime = 0.25 s  ClockTime = 0 s

Courant Number mean: 0.0810662 max: 0.409593
Interface Courant Number mean: 0.00464159 max: 0.381588
deltaT = 0.00473396
Time = 0.05

smoothSolver:  Solving for alpha.water, Initial residual = 0.00329324, Final residual = 4.02756e-10, No Iterations 3
Phase-1 volume fraction = 0.130194  Min(alpha.water) = 0  Max(alpha.water) = 1
MULES: Correcting alpha.water
MULES: Correcting alpha.water
Phase-1 volume fraction = 0.130194  Min(alpha.water) = -1.21817e-06  Max(alpha.water) = 1
DICPCG:  Solving for p_rgh, Initial residual = 0.0122505, Final residual = 0.000587731, No Iterations 1
time step continuity errors : sum local = 0.000892954, global = -2.70452e-06, cumulative = 8.38101e-06
DICPCG:  Solving for p_rgh, Initial residual = 0.000715145, Final residual = 3.44695e-05, No Iterations 11
time step continuity errors : sum local = 5.18041e-05, global = 1.11092e-05, cumulative = 1.94902e-05
DICPCG:  Solving for p_rgh, Initial residual = 0.00022069, Final residual = 8.66864e-08, No Iterations 53
time step continuity errors : sum local = 1.33993e-07, global = -1.50056e-08, cumulative = 1.94752e-05
smoothSolver:  Solving for epsilon, Initial residual = 0.00817409, Final residual = 2.28992e-07, No Iterations 5
smoothSolver:  Solving for k, Initial residual = 0.0621123, Final residual = 2.71999e-07, No Iterations 7
ExecutionTime = 0.28 s  ClockTime = 0 s

Courant Number mean: 0.0890529 max: 0.44949
Interface Courant Number mean: 0.00525081 max: 0.405498
deltaT = 0.00555556
Time = 0.0555556

smoothSolver:  Solving for alpha.water, Initial residual = 0.00422207, Final residual = 1.92264e-09, No Iterations 3
Phase-1 volume fraction = 0.130194  Min(alpha.water) = 0  Max(alpha.water) = 1
MULES: Correcting alpha.water
MULES: Correcting alpha.water
Phase-1 volume fraction = 0.130194  Min(alpha.water) = -3.14161e-06  Max(alpha.water) = 1
DICPCG:  Solving for p_rgh, Initial residual = 0.0161058, Final residual = 0.00026124, No Iterations 2
time step continuity errors : sum local = 0.000505816, global = -4.16571e-06, cumulative = 1.53095e-05
DICPCG:  Solving for p_rgh, Initial residual = 0.000354299, Final residual = 1.25001e-05, No Iterations 15
time step continuity errors : sum local = 2.38473e-05, global = 2.57394e-06, cumulative = 1.78835e-05
DICPCG:  Solving for p_rgh, Initial residual = 9.68982e-05, Final residual = 9.59208e-08, No Iterations 52
time step continuity errors : sum local = 1.89555e-07, global = -1.87656e-08, cumulative = 1.78647e-05
smoothSolver:  Solving for epsilon, Initial residual = 0.0106449, Final residual = 7.3665e-07, No Iterations 5
smoothSolver:  Solving for k, Initial residual = 0.0705203, Final residual = 9.80012e-07, No Iterations 7
ExecutionTime = 0.3 s  ClockTime = 0 s

Courant Number mean: 0.114962 max: 0.601194
Interface Courant Number mean: 0.0072687 max: 0.487491
deltaT = 0.00634921
Time = 0.0619048

smoothSolver:  Solving for alpha.water, Initial residual = 0.00527866, Final residual = 6.38142e-09, No Iterations 3
Phase-1 volume fraction = 0.130194  Min(alpha.water) = -1.61552e-12  Max(alpha.water) = 1
MULES: Correcting alpha.water
MULES: Correcting alpha.water
Phase-1 volume fraction = 0.130194  Min(alpha.water) = -6.30084e-06  Max(alpha.water) = 1
DICPCG:  Solving for p_rgh, Initial residual = 0.0218506, Final residual = 0.000367493, No Iterations 2
time step continuity errors : sum local = 0.000868468, global = -1.10245e-06, cumulative = 1.67623e-05
DICPCG:  Solving for p_rgh, Initial residual = 0.000489575, Final residual = 1.84011e-05, No Iterations 15
time step continuity errors : sum local = 4.25545e-05, global = 5.80696e-06, cumulative = 2.25692e-05
DICPCG:  Solving for p_rgh, Initial residual = 0.000135893, Final residual = 8.80587e-08, No Iterations 41
time step continuity errors : sum local = 2.1239e-07, global = 5.70515e-08, cumulative = 2.26263e-05
smoothSolver:  Solving for epsilon, Initial residual = 0.0135686, Final residual = 4.66599e-07, No Iterations 6
smoothSolver:  Solving for k, Initial residual = 0.0777998, Final residual = 8.70987e-07, No Iterations 8
ExecutionTime = 0.32 s  ClockTime = 0 s

Courant Number mean: 0.144318 max: 0.797431
Interface Courant Number mean: 0.00927696 max: 0.587966
deltaT = 0.00634921
Time = 0.068254

smoothSolver:  Solving for alpha.water, Initial residual = 0.00575098, Final residual = 4.43058e-11, No Iterations 4
Phase-1 volume fraction = 0.130194  Min(alpha.water) = -1.08811e-12  Max(alpha.water) = 1
MULES: Correcting alpha.water
MULES: Correcting alpha.water
Phase-1 volume fraction = 0.130194  Min(alpha.water) = -8.33701e-06  Max(alpha.water) = 1.00004
DICPCG:  Solving for p_rgh, Initial residual = 0.0302144, Final residual = 0.000466616, No Iterations 2
time step continuity errors : sum local = 0.00110275, global = -2.7887e-06, cumulative = 1.98376e-05
DICPCG:  Solving for p_rgh, Initial residual = 0.000606932, Final residual = 2.52397e-05, No Iterations 15
time step continuity errors : sum local = 5.7862e-05, global = 8.62012e-06, cumulative = 2.84577e-05
DICPCG:  Solving for p_rgh, Initial residual = 0.000177488, Final residual = 8.56273e-08, No Iterations 54
time step continuity errors : sum local = 2.04982e-07, global = -1.7878e-08, cumulative = 2.84398e-05
smoothSolver:  Solving for epsilon, Initial residual = 0.0153267, Final residual = 6.07272e-07, No Iterations 6
smoothSolver:  Solving for k, Initial residual = 0.0749232, Final residual = 3.1807e-07, No Iterations 9
ExecutionTime = 0.34 s  ClockTime = 0 s

Courant Number mean: 0.156788 max: 0.917125
Interface Courant Number mean: 0.0108915 max: 0.620385
deltaT = 0.00634921
Time = 0.0746032

smoothSolver:  Solving for alpha.water, Initial residual = 0.006201, Final residual = 6.04406e-11, No Iterations 4
Phase-1 volume fraction = 0.130194  Min(alpha.water) = -6.04417e-13  Max(alpha.water) = 1
MULES: Correcting alpha.water
MULES: Correcting alpha.water
Phase-1 volume fraction = 0.130194  Min(alpha.water) = -1.01277e-05  Max(alpha.water) = 1.00004
DICPCG:  Solving for p_rgh, Initial residual = 0.0204375, Final residual = 0.000469984, No Iterations 2
time step continuity errors : sum local = 0.00110933, global = -4.68468e-06, cumulative = 2.37551e-05
DICPCG:  Solving for p_rgh, Initial residual = 0.000595722, Final residual = 2.7408e-05, No Iterations 15
time step continuity errors : sum local = 6.37764e-05, global = 7.76451e-06, cumulative = 3.15196e-05
DICPCG:  Solving for p_rgh, Initial residual = 0.000177858, Final residual = 9.36546e-08, No Iterations 54
time step continuity errors : sum local = 2.27935e-07, global = -1.8047e-08, cumulative = 3.15016e-05
smoothSolver:  Solving for epsilon, Initial residual = 0.0173104, Final residual = 7.9626e-07, No Iterations 6
smoothSolver:  Solving for k, Initial residual = 0.0711992, Final residual = 3.72515e-07, No Iterations 9
ExecutionTime = 0.36 s  ClockTime = 0 s

Courant Number mean: 0.168869 max: 1.05438
Interface Courant Number mean: 0.0114727 max: 0.680112
deltaT = 0.00507937
Time = 0.0796825

smoothSolver:  Solving for alpha.water, Initial residual = 0.0053329, Final residual = 5.76563e-09, No Iterations 3
Phase-1 volume fraction = 0.130194  Min(alpha.water) = -3.57593e-08  Max(alpha.water) = 1
MULES: Correcting alpha.water
MULES: Correcting alpha.water
Phase-1 volume fraction = 0.130194  Min(alpha.water) = -8.6243e-06  Max(alpha.water) = 1
DICPCG:  Solving for p_rgh, Initial residual = 0.0180461, Final residual = 0.000820374, No Iterations 1
time step continuity errors : sum local = 0.00144394, global = -3.32345e-06, cumulative = 2.81781e-05
DICPCG:  Solving for p_rgh, Initial residual = 0.00102648, Final residual = 4.82626e-05, No Iterations 12
time step continuity errors : sum local = 8.33385e-05, global = 1.68642e-05, cumulative = 4.50424e-05
DICPCG:  Solving for p_rgh, Initial residual = 0.000296096, Final residual = 7.77116e-08, No Iterations 54
time step continuity errors : sum local = 1.391e-07, global = -1.13912e-08, cumulative = 4.5031e-05
smoothSolver:  Solving for epsilon, Initial residual = 0.0157006, Final residual = 2.20972e-07, No Iterations 6
smoothSolver:  Solving for k, Initial residual = 0.0536986, Final residual = 8.85572e-07, No Iterations 7
ExecutionTime = 0.37 s  ClockTime = 0 s

Courant Number mean: 0.143012 max: 0.933755
Interface Courant Number mean: 0.00978899 max: 0.550363
deltaT = 0.00507937
Time = 0.0847619

smoothSolver:  Solving for alpha.water, Initial residual = 0.0056334, Final residual = 6.24424e-09, No Iterations 3
Phase-1 volume fraction = 0.130194  Min(alpha.water) = -2.90798e-08  Max(alpha.water) = 1
MULES: Correcting alpha.water
MULES: Correcting alpha.water
Phase-1 volume fraction = 0.130194  Min(alpha.water) = -1.20963e-05  Max(alpha.water) = 1
DICPCG:  Solving for p_rgh, Initial residual = 0.020806, Final residual = 0.001032, No Iterations 1
time step continuity errors : sum local = 0.00181342, global = -5.57779e-06, cumulative = 3.94532e-05
DICPCG:  Solving for p_rgh, Initial residual = 0.00127859, Final residual = 4.29542e-05, No Iterations 13
time step continuity errors : sum local = 7.38379e-05, global = 1.60821e-05, cumulative = 5.55353e-05
DICPCG:  Solving for p_rgh, Initial residual = 0.000348019, Final residual = 8.51575e-08, No Iterations 54
time step continuity errors : sum local = 1.52262e-07, global = -1.50438e-08, cumulative = 5.55202e-05
smoothSolver:  Solving for epsilon, Initial residual = 0.0172789, Final residual = 2.78168e-07, No Iterations 6
smoothSolver:  Solving for k, Initial residual = 0.0509903, Final residual = 9.76741e-07, No Iterations 7
ExecutionTime = 0.39 s  ClockTime = 0 s

Courant Number mean: 0.150784 max: 1.04469
Interface Courant Number mean: 0.0107421 max: 0.592114
deltaT = 0.00380952
Time = 0.0885714

smoothSolver:  Solving for alpha.water, Initial residual = 0.00444386, Final residual = 1.39741e-09, No Iterations 3
Phase-1 volume fraction = 0.130194  Min(alpha.water) = -2.46077e-08  Max(alpha.water) = 1
MULES: Correcting alpha.water
MULES: Correcting alpha.water
Phase-1 volume fraction = 0.130194  Min(alpha.water) = -6.85909e-06  Max(alpha.water) = 1
DICPCG:  Solving for p_rgh, Initial residual = 0.0194065, Final residual = 0.000300171, No Iterations 2
time step continuity errors : sum local = 0.000337515, global = -3.78315e-06, cumulative = 5.17371e-05
DICPCG:  Solving for p_rgh, Initial residual = 0.000394528, Final residual = 1.70927e-05, No Iterations 15
time step continuity errors : sum local = 1.8849e-05, global = 2.55495e-06, cumulative = 5.4292e-05
DICPCG:  Solving for p_rgh, Initial residual = 0.000101384, Final residual = 7.72784e-08, No Iterations 52
time step continuity errors : sum local = 8.77315e-08, global = -8.45214e-09, cumulative = 5.42836e-05
smoothSolver:  Solving for epsilon, Initial residual = 0.0143023, Final residual = 2.60973e-07, No Iterations 5
smoothSolver:  Solving for k, Initial residual = 0.0366667, Final residual = 5.56605e-07, No Iterations 6
ExecutionTime = 0.4 s  ClockTime = 0 s

Courant Number mean: 0.117604 max: 0.846817
Interface Courant Number mean: 0.00784621 max: 0.443842
deltaT = 0.00380952
Time = 0.092381

smoothSolver:  Solving for alpha.water, Initial residual = 0.00461217, Final residual = 1.4813e-09, No Iterations 3
Phase-1 volume fraction = 0.130194  Min(alpha.water) = -2.0694e-08  Max(alpha.water) = 1
MULES: Correcting alpha.water
MULES: Correcting alpha.water
Phase-1 volume fraction = 0.130194  Min(alpha.water) = -7.80738e-06  Max(alpha.water) = 1
DICPCG:  Solving for p_rgh, Initial residual = 0.0237467, Final residual = 0.0003818, No Iterations 2
time step continuity errors : sum local = 0.000427246, global = -9.98101e-07, cumulative = 5.32855e-05
DICPCG:  Solving for p_rgh, Initial residual = 0.000475959, Final residual = 2.16183e-05, No Iterations 15
time step continuity errors : sum local = 2.36959e-05, global = 3.46577e-06, cumulative = 5.67512e-05
DICPCG:  Solving for p_rgh, Initial residual = 0.000125072, Final residual = 7.08454e-08, No Iterations 53
time step continuity errors : sum local = 8.02063e-08, global = -6.83756e-09, cumulative = 5.67444e-05
smoothSolver:  Solving for epsilon, Initial residual = 0.0152785, Final residual = 3.04266e-07, No Iterations 5
smoothSolver:  Solving for k, Initial residual = 0.0352922, Final residual = 5.9366e-07, No Iterations 6
ExecutionTime = 0.42 s  ClockTime = 0 s

Courant Number mean: 0.121988 max: 0.923726
Interface Courant Number mean: 0.00842092 max: 0.443501
deltaT = 0.00380952
Time = 0.0961905

smoothSolver:  Solving for alpha.water, Initial residual = 0.00477854, Final residual = 1.83825e-09, No Iterations 3
Phase-1 volume fraction = 0.130194  Min(alpha.water) = -1.73077e-08  Max(alpha.water) = 1
MULES: Correcting alpha.water
MULES: Correcting alpha.water
Phase-1 volume fraction = 0.130194  Min(alpha.water) = -8.01693e-06  Max(alpha.water) = 1
DICPCG:  Solving for p_rgh, Initial residual = 0.0184044, Final residual = 0.000353177, No Iterations 2
time step continuity errors : sum local = 0.000407778, global = -1.37196e-06, cumulative = 5.53724e-05
DICPCG:  Solving for p_rgh, Initial residual = 0.000441711, Final residual = 1.57954e-05, No Iterations 16
time step continuity errors : sum local = 1.79842e-05, global = 3.45463e-06, cumulative = 5.88271e-05
DICPCG:  Solving for p_rgh, Initial residual = 0.000111411, Final residual = 7.30784e-08, No Iterations 53
time step continuity errors : sum local = 8.58387e-08, global = -6.26966e-09, cumulative = 5.88208e-05
smoothSolver:  Solving for epsilon, Initial residual = 0.0162789, Final residual = 3.51408e-07, No Iterations 5
smoothSolver:  Solving for k, Initial residual = 0.0340344, Final residual = 6.30095e-07, No Iterations 6
ExecutionTime = 0.43 s  ClockTime = 0 s

Courant Number mean: 0.126273 max: 1.01469
Interface Courant Number mean: 0.00834694 max: 0.457944
deltaT = 0.00190476
Time = 0.0980952

smoothSolver:  Solving for alpha.water, Initial residual = 0.00247686, Final residual = 3.35731e-11, No Iterations 3
Phase-1 volume fraction = 0.130194  Min(alpha.water) = -3.68518e-08  Max(alpha.water) = 1
MULES: Correcting alpha.water
MULES: Correcting alpha.water
Phase-1 volume fraction = 0.130194  Min(alpha.water) = -1.26149e-06  Max(alpha.water) = 1
DICPCG:  Solving for p_rgh, Initial residual = 0.0100422, Final residual = 0.000373047, No Iterations 1
time step continuity errors : sum local = 0.000141629, global = -4.74299e-07, cumulative = 5.83465e-05
DICPCG:  Solving for p_rgh, Initial residual = 0.000426381, Final residual = 1.5718e-05, No Iterations 13
time step continuity errors : sum local = 5.91152e-06, global = 1.01725e-06, cumulative = 5.93638e-05
DICPCG:  Solving for p_rgh, Initial residual = 8.66737e-05, Final residual = 7.23916e-08, No Iterations 49
time step continuity errors : sum local = 2.76076e-08, global = 3.98017e-10, cumulative = 5.93642e-05
smoothSolver:  Solving for epsilon, Initial residual = 0.00865911, Final residual = 5.86541e-07, No Iterations 3
smoothSolver:  Solving for k, Initial residual = 0.0164721, Final residual = 2.81094e-07, No Iterations 4
ExecutionTime = 0.45 s  ClockTime = 0 s

Courant Number mean: 0.0642422 max: 0.527206
Interface Courant Number mean: 0.00420262 max: 0.233201
deltaT = 0.00190476
Time = 0.1

smoothSolver:  Solving for alpha.water, Initial residual = 0.00252131, Final residual = 3.30327e-11, No Iterations 3
Phase-1 volume fraction = 0.130194  Min(alpha.water) = -3.47394e-08  Max(alpha.water) = 1
MULES: Correcting alpha.water
MULES: Correcting alpha.water
Phase-1 volume fraction = 0.130194  Min(alpha.water) = -1.28992e-06  Max(alpha.water) = 1
DICPCG:  Solving for p_rgh, Initial residual = 0.0104118, Final residual = 0.000415169, No Iterations 1
time step continuity errors : sum local = 0.000157077, global = -1.6656e-07, cumulative = 5.91976e-05
DICPCG:  Solving for p_rgh, Initial residual = 0.000476011, Final residual = 2.06998e-05, No Iterations 12
time step continuity errors : sum local = 7.75417e-06, global = 1.52459e-06, cumulative = 6.07222e-05
DICPCG:  Solving for p_rgh, Initial residual = 0.000101127, Final residual = 8.81744e-08, No Iterations 49
time step continuity errors : sum local = 3.35697e-08, global = -3.98359e-09, cumulative = 6.07182e-05
smoothSolver:  Solving for epsilon, Initial residual = 0.00890674, Final residual = 6.25515e-07, No Iterations 3
smoothSolver:  Solving for k, Initial residual = 0.0162464, Final residual = 2.90112e-07, No Iterations 4
ExecutionTime = 0.48 s  ClockTime = 0 s

Courant Number mean: 0.0653739 max: 0.550215
Interface Courant Number mean: 0.00432799 max: 0.249695
deltaT = 0.00217391
Time = 0.102174

smoothSolver:  Solving for alpha.water, Initial residual = 0.00292989, Final residual = 8.37287e-11, No Iterations 3
Phase-1 volume fraction = 0.130194  Min(alpha.water) = -3.23849e-08  Max(alpha.water) = 1
MULES: Correcting alpha.water
MULES: Correcting alpha.water
Phase-1 volume fraction = 0.130194  Min(alpha.water) = -1.88372e-06  Max(alpha.water) = 1
DICPCG:  Solving for p_rgh, Initial residual = 0.0120031, Final residual = 0.000530737, No Iterations 1
time step continuity errors : sum local = 0.00024875, global = -2.86829e-07, cumulative = 6.04314e-05
DICPCG:  Solving for p_rgh, Initial residual = 0.00061303, Final residual = 2.80714e-05, No Iterations 12
time step continuity errors : sum local = 1.30074e-05, global = 2.97481e-06, cumulative = 6.34062e-05
DICPCG:  Solving for p_rgh, Initial residual = 0.000136174, Final residual = 9.73632e-08, No Iterations 50
time step continuity errors : sum local = 4.59722e-08, global = -5.01678e-09, cumulative = 6.34012e-05
smoothSolver:  Solving for epsilon, Initial residual = 0.0104795, Final residual = 9.63127e-08, No Iterations 4
smoothSolver:  Solving for k, Initial residual = 0.0182901, Final residual = 6.94358e-07, No Iterations 4
ExecutionTime = 0.5 s  ClockTime = 0 s

Courant Number mean: 0.0760436 max: 0.661858
Interface Courant Number mean: 0.00492815 max: 0.280368
deltaT = 0.0023913
Time = 0.104565

smoothSolver:  Solving for alpha.water, Initial residual = 0.00329495, Final residual = 1.72673e-10, No Iterations 3
Phase-1 volume fraction = 0.130194  Min(alpha.water) = -2.9879e-08  Max(alpha.water) = 1
MULES: Correcting alpha.water
MULES: Correcting alpha.water
Phase-1 volume fraction = 0.130194  Min(alpha.water) = -3.32336e-06  Max(alpha.water) = 1
DICPCG:  Solving for p_rgh, Initial residual = 0.0135231, Final residual = 0.000633664, No Iterations 1
time step continuity errors : sum local = 0.00034692, global = -6.55774e-07, cumulative = 6.27454e-05
DICPCG:  Solving for p_rgh, Initial residual = 0.000742148, Final residual = 3.45032e-05, No Iterations 12
time step continuity errors : sum local = 1.86384e-05, global = 3.9817e-06, cumulative = 6.67271e-05
DICPCG:  Solving for p_rgh, Initial residual = 0.000165541, Final residual = 9.93949e-08, No Iterations 51
time step continuity errors : sum local = 5.48202e-08, global = -5.6754e-09, cumulative = 6.67214e-05
smoothSolver:  Solving for epsilon, Initial residual = 0.0120186, Final residual = 1.93875e-07, No Iterations 4
smoothSolver:  Solving for k, Initial residual = 0.0198589, Final residual = 1.56539e-07, No Iterations 5
ExecutionTime = 0.51 s  ClockTime = 0 s

Courant Number mean: 0.0853429 max: 0.773568
Interface Courant Number mean: 0.0055379 max: 0.309385
deltaT = 0.00267263
Time = 0.107238

smoothSolver:  Solving for alpha.water, Initial residual = 0.00375875, Final residual = 3.92526e-10, No Iterations 3
Phase-1 volume fraction = 0.130194  Min(alpha.water) = -2.72031e-08  Max(alpha.water) = 1
MULES: Correcting alpha.water
MULES: Correcting alpha.water
Phase-1 volume fraction = 0.130194  Min(alpha.water) = -5.45135e-06  Max(alpha.water) = 1
DICPCG:  Solving for p_rgh, Initial residual = 0.0165754, Final residual = 0.000824945, No Iterations 1
time step continuity errors : sum local = 0.00054018, global = -9.46427e-07, cumulative = 6.5775e-05
DICPCG:  Solving for p_rgh, Initial residual = 0.000968623, Final residual = 4.68675e-05, No Iterations 12
time step continuity errors : sum local = 3.0181e-05, global = 6.82662e-06, cumulative = 7.26016e-05
DICPCG:  Solving for p_rgh, Initial residual = 0.000210743, Final residual = 6.43187e-08, No Iterations 53
time step continuity errors : sum local = 4.23886e-08, global = -2.05529e-09, cumulative = 7.25996e-05
smoothSolver:  Solving for epsilon, Initial residual = 0.0141198, Final residual = 4.24417e-07, No Iterations 4
smoothSolver:  Solving for k, Initial residual = 0.0218893, Final residual = 3.55669e-07, No Iterations 5
ExecutionTime = 0.53 s  ClockTime = 0 s

Courant Number mean: 0.0974195 max: 0.926317
Interface Courant Number mean: 0.00624723 max: 0.332998
deltaT = 0.00285081
Time = 0.110089

smoothSolver:  Solving for alpha.water, Initial residual = 0.00410492, Final residual = 6.65349e-10, No Iterations 3
Phase-1 volume fraction = 0.130194  Min(alpha.water) = -2.45064e-08  Max(alpha.water) = 1
MULES: Correcting alpha.water
MULES: Correcting alpha.water
Phase-1 volume fraction = 0.130194  Min(alpha.water) = -7.21169e-06  Max(alpha.water) = 1
DICPCG:  Solving for p_rgh, Initial residual = 0.0184667, Final residual = 0.000313148, No Iterations 2
time step continuity errors : sum local = 0.000227197, global = -1.68102e-06, cumulative = 7.09185e-05
DICPCG:  Solving for p_rgh, Initial residual = 0.000399015, Final residual = 1.86175e-05, No Iterations 15
time step continuity errors : sum local = 1.33057e-05, global = 2.19451e-06, cumulative = 7.3113e-05
DICPCG:  Solving for p_rgh, Initial residual = 9.78509e-05, Final residual = 9.44953e-08, No Iterations 51
time step continuity errors : sum local = 6.91663e-08, global = -6.03389e-09, cumulative = 7.3107e-05
smoothSolver:  Solving for epsilon, Initial residual = 0.0159494, Final residual = 6.81437e-07, No Iterations 4
smoothSolver:  Solving for k, Initial residual = 0.0229545, Final residual = 5.71237e-07, No Iterations 5
ExecutionTime = 0.54 s  ClockTime = 0 s

Courant Number mean: 0.106113 max: 1.06335
Interface Courant Number mean: 0.00706423 max: 0.429356
deltaT = 0.00266076
Time = 0.112749

smoothSolver:  Solving for alpha.water, Initial residual = 0.00391532, Final residual = 5.40248e-10, No Iterations 3
Phase-1 volume fraction = 0.130194  Min(alpha.water) = -2.21355e-08  Max(alpha.water) = 1
MULES: Correcting alpha.water
MULES: Correcting alpha.water
Phase-1 volume fraction = 0.130194  Min(alpha.water) = -5.49583e-06  Max(alpha.water) = 1
DICPCG:  Solving for p_rgh, Initial residual = 0.0165001, Final residual = 0.0002886, No Iterations 2
time step continuity errors : sum local = 0.00019337, global = -6.42864e-07, cumulative = 7.24641e-05
DICPCG:  Solving for p_rgh, Initial residual = 0.000359099, Final residual = 1.74664e-05, No Iterations 15
time step continuity errors : sum local = 1.15631e-05, global = 1.82708e-06, cumulative = 7.42912e-05
DICPCG:  Solving for p_rgh, Initial residual = 8.26777e-05, Final residual = 9.81934e-08, No Iterations 50
time step continuity errors : sum local = 6.63897e-08, global = -3.417e-09, cumulative = 7.42878e-05
smoothSolver:  Solving for epsilon, Initial residual = 0.0157793, Final residual = 4.77062e-07, No Iterations 4
smoothSolver:  Solving for k, Initial residual = 0.0210192, Final residual = 3.66207e-07, No Iterations 5
ExecutionTime = 0.56 s  ClockTime = 0 s

Courant Number mean: 0.100897 max: 1.05747
Interface Courant Number mean: 0.00646952 max: 0.396475
deltaT = 0.00248337
Time = 0.115233

smoothSolver:  Solving for alpha.water, Initial residual = 0.00373536, Final residual = 3.99403e-10, No Iterations 3
Phase-1 volume fraction = 0.130194  Min(alpha.water) = -1.93068e-08  Max(alpha.water) = 1
MULES: Correcting alpha.water
MULES: Correcting alpha.water
Phase-1 volume fraction = 0.130194  Min(alpha.water) = -4.19025e-06  Max(alpha.water) = 1
DICPCG:  Solving for p_rgh, Initial residual = 0.0121401, Final residual = 0.000480449, No Iterations 1
time step continuity errors : sum local = 0.000291352, global = -4.59954e-07, cumulative = 7.38279e-05
DICPCG:  Solving for p_rgh, Initial residual = 0.000585464, Final residual = 2.48769e-05, No Iterations 12
time step continuity errors : sum local = 1.49034e-05, global = 3.28961e-06, cumulative = 7.71175e-05
DICPCG:  Solving for p_rgh, Initial residual = 0.000146833, Final residual = 9.17219e-08, No Iterations 50
time step continuity errors : sum local = 5.60523e-08, global = -3.36123e-09, cumulative = 7.71141e-05
smoothSolver:  Solving for epsilon, Initial residual = 0.0155493, Final residual = 3.29632e-07, No Iterations 4
smoothSolver:  Solving for k, Initial residual = 0.0193413, Final residual = 2.32876e-07, No Iterations 5
ExecutionTime = 0.57 s  ClockTime = 0 s

Courant Number mean: 0.0957496 max: 1.04303
Interface Courant Number mean: 0.00623547 max: 0.367022
deltaT = 0.00231781
Time = 0.117551

smoothSolver:  Solving for alpha.water, Initial residual = 0.00356355, Final residual = 2.99561e-10, No Iterations 3
Phase-1 volume fraction = 0.130194  Min(alpha.water) = -1.75916e-08  Max(alpha.water) = 1
MULES: Correcting alpha.water
MULES: Correcting alpha.water
Phase-1 volume fraction = 0.130194  Min(alpha.water) = -2.0439e-06  Max(alpha.water) = 1
DICPCG:  Solving for p_rgh, Initial residual = 0.0123149, Final residual = 0.000506658, No Iterations 1
time step continuity errors : sum local = 0.000274003, global = -6.50013e-07, cumulative = 7.64641e-05
DICPCG:  Solving for p_rgh, Initial residual = 0.000604609, Final residual = 2.81634e-05, No Iterations 12
time step continuity errors : sum local = 1.50485e-05, global = 3.1986e-06, cumulative = 7.96627e-05
DICPCG:  Solving for p_rgh, Initial residual = 0.000145056, Final residual = 8.71252e-08, No Iterations 50
time step continuity errors : sum local = 4.74135e-08, global = -2.73348e-09, cumulative = 7.966e-05
smoothSolver:  Solving for epsilon, Initial residual = 0.0153008, Final residual = 2.25085e-07, No Iterations 4
smoothSolver:  Solving for k, Initial residual = 0.0178477, Final residual = 1.4699e-07, No Iterations 5
ExecutionTime = 0.59 s  ClockTime = 0 s

Courant Number mean: 0.0907204 max: 1.02107
Interface Courant Number mean: 0.00586751 max: 0.630319
deltaT = 0.00216329
Time = 0.119714

smoothSolver:  Solving for alpha.water, Initial residual = 0.0033878, Final residual = 2.17989e-10, No Iterations 3
Phase-1 volume fraction = 0.130194  Min(alpha.water) = -1.60873e-08  Max(alpha.water) = 1
MULES: Correcting alpha.water
MULES: Correcting alpha.water
Phase-1 volume fraction = 0.130194  Min(alpha.water) = -6.14019e-07  Max(alpha.water) = 1.00001
DICPCG:  Solving for p_rgh, Initial residual = 0.0122984, Final residual = 0.000516938, No Iterations 1
time step continuity errors : sum local = 0.000248794, global = -6.27198e-07, cumulative = 7.90328e-05
DICPCG:  Solving for p_rgh, Initial residual = 0.000608224, Final residual = 2.17994e-05, No Iterations 13
time step continuity errors : sum local = 1.03634e-05, global = 2.33145e-06, cumulative = 8.13642e-05
DICPCG:  Solving for p_rgh, Initial residual = 0.000132247, Final residual = 7.65067e-08, No Iterations 50
time step continuity errors : sum local = 3.69926e-08, global = -2.50705e-09, cumulative = 8.13617e-05
smoothSolver:  Solving for epsilon, Initial residual = 0.0150482, Final residual = 1.52142e-07, No Iterations 4
smoothSolver:  Solving for k, Initial residual = 0.0165184, Final residual = 7.873e-07, No Iterations 4
ExecutionTime = 0.61 s  ClockTime = 0 s

Courant Number mean: 0.0858729 max: 0.994129
Interface Courant Number mean: 0.00580044 max: 0.603878
deltaT = 0.00216329
Time = 0.121877

smoothSolver:  Solving for alpha.water, Initial residual = 0.00343762, Final residual = 2.36446e-10, No Iterations 3
Phase-1 volume fraction = 0.130194  Min(alpha.water) = -1.4679e-08  Max(alpha.water) = 1
MULES: Correcting alpha.water
MULES: Correcting alpha.water
Phase-1 volume fraction = 0.130194  Min(alpha.water) = -6.83142e-07  Max(alpha.water) = 1
DICPCG:  Solving for p_rgh, Initial residual = 0.0133192, Final residual = 0.000608656, No Iterations 1
time step continuity errors : sum local = 0.000291821, global = -4.51769e-07, cumulative = 8.09099e-05
DICPCG:  Solving for p_rgh, Initial residual = 0.000711656, Final residual = 2.57523e-05, No Iterations 13
time step continuity errors : sum local = 1.21826e-05, global = 2.96269e-06, cumulative = 8.38726e-05
DICPCG:  Solving for p_rgh, Initial residual = 0.00014556, Final residual = 9.50541e-08, No Iterations 50
time step continuity errors : sum local = 4.57388e-08, global = -2.01616e-09, cumulative = 8.38706e-05
smoothSolver:  Solving for epsilon, Initial residual = 0.01585, Final residual = 1.59646e-07, No Iterations 4
smoothSolver:  Solving for k, Initial residual = 0.0164147, Final residual = 8.00613e-07, No Iterations 4
ExecutionTime = 0.63 s  ClockTime = 0 s

Courant Number mean: 0.0870432 max: 1.03738
Interface Courant Number mean: 0.00576344 max: 0.619006
deltaT = 0.00200877
Time = 0.123886

smoothSolver:  Solving for alpha.water, Initial residual = 0.00324138, Final residual = 1.62982e-10, No Iterations 3
Phase-1 volume fraction = 0.130194  Min(alpha.water) = -1.34521e-08  Max(alpha.water) = 1
MULES: Correcting alpha.water
MULES: Correcting alpha.water
Phase-1 volume fraction = 0.130194  Min(alpha.water) = -5.86316e-07  Max(alpha.water) = 1
DICPCG:  Solving for p_rgh, Initial residual = 0.014092, Final residual = 0.000673003, No Iterations 1
time step continuity errors : sum local = 0.000283536, global = -5.48902e-07, cumulative = 8.33217e-05
DICPCG:  Solving for p_rgh, Initial residual = 0.000777334, Final residual = 3.71858e-05, No Iterations 12
time step continuity errors : sum local = 1.5459e-05, global = 3.11694e-06, cumulative = 8.64386e-05
DICPCG:  Solving for p_rgh, Initial residual = 0.000150703, Final residual = 8.41384e-08, No Iterations 50
time step continuity errors : sum local = 3.55162e-08, global = -1.88619e-09, cumulative = 8.64368e-05
smoothSolver:  Solving for epsilon, Initial residual = 0.015524, Final residual = 1.02515e-07, No Iterations 4
smoothSolver:  Solving for k, Initial residual = 0.0151351, Final residual = 5.12595e-07, No Iterations 4
ExecutionTime = 0.65 s  ClockTime = 0 s

Courant Number mean: 0.0818099 max: 1.00022
Interface Courant Number mean: 0.00525928 max: 0.587487
deltaT = 0.00200877
Time = 0.125895

smoothSolver:  Solving for alpha.water, Initial residual = 0.00328218, Final residual = 1.80064e-10, No Iterations 3
Phase-1 volume fraction = 0.130194  Min(alpha.water) = -1.2306e-08  Max(alpha.water) = 1
MULES: Correcting alpha.water
MULES: Correcting alpha.water
Phase-1 volume fraction = 0.130194  Min(alpha.water) = -6.36711e-07  Max(alpha.water) = 1
DICPCG:  Solving for p_rgh, Initial residual = 0.0131325, Final residual = 0.000224091, No Iterations 2
time step continuity errors : sum local = 9.41277e-05, global = -6.14223e-07, cumulative = 8.58225e-05
DICPCG:  Solving for p_rgh, Initial residual = 0.000278511, Final residual = 1.23045e-05, No Iterations 15
time step continuity errors : sum local = 5.11615e-06, global = 9.53656e-07, cumulative = 8.67762e-05
DICPCG:  Solving for p_rgh, Initial residual = 6.17583e-05, Final residual = 7.80171e-08, No Iterations 50
time step continuity errors : sum local = 3.29251e-08, global = -5.85892e-10, cumulative = 8.67756e-05
smoothSolver:  Solving for epsilon, Initial residual = 0.0163807, Final residual = 1.06409e-07, No Iterations 4
smoothSolver:  Solving for k, Initial residual = 0.0150826, Final residual = 5.18018e-07, No Iterations 4
ExecutionTime = 0.66 s  ClockTime = 0 s

Courant Number mean: 0.0827679 max: 1.03974
Interface Courant Number mean: 0.00538463 max: 0.742956
deltaT = 0.00185425
Time = 0.127749

smoothSolver:  Solving for alpha.water, Initial residual = 0.0030666, Final residual = 1.19175e-10, No Iterations 3
Phase-1 volume fraction = 0.130194  Min(alpha.water) = -1.13136e-08  Max(alpha.water) = 1
MULES: Correcting alpha.water
MULES: Correcting alpha.water
Phase-1 volume fraction = 0.130194  Min(alpha.water) = -5.22621e-07  Max(alpha.water) = 1.00001
DICPCG:  Solving for p_rgh, Initial residual = 0.0141926, Final residual = 0.000264277, No Iterations 2
time step continuity errors : sum local = 9.99407e-05, global = -1.97469e-07, cumulative = 8.65781e-05
DICPCG:  Solving for p_rgh, Initial residual = 0.000325956, Final residual = 1.3424e-05, No Iterations 16
time step continuity errors : sum local = 5.02483e-06, global = 9.40666e-07, cumulative = 8.75188e-05
DICPCG:  Solving for p_rgh, Initial residual = 6.36915e-05, Final residual = 8.3187e-08, No Iterations 50
time step continuity errors : sum local = 3.15391e-08, global = -4.89139e-10, cumulative = 8.75183e-05
smoothSolver:  Solving for epsilon, Initial residual = 0.0159284, Final residual = 6.46352e-08, No Iterations 4
smoothSolver:  Solving for k, Initial residual = 0.0138806, Final residual = 3.16075e-07, No Iterations 4
ExecutionTime = 0.68 s  ClockTime = 0 s

Courant Number mean: 0.0771861 max: 0.992987
Interface Courant Number mean: 0.00467011 max: 0.703368
deltaT = 0.00185425
Time = 0.129603

smoothSolver:  Solving for alpha.water, Initial residual = 0.00310202, Final residual = 1.27645e-10, No Iterations 3
Phase-1 volume fraction = 0.130194  Min(alpha.water) = -1.0386e-08  Max(alpha.water) = 1
MULES: Correcting alpha.water
MULES: Correcting alpha.water
Phase-1 volume fraction = 0.130194  Min(alpha.water) = -5.49001e-07  Max(alpha.water) = 1
DICPCG:  Solving for p_rgh, Initial residual = 0.0109433, Final residual = 0.000516096, No Iterations 1
time step continuity errors : sum local = 0.000197595, global = -1.99633e-07, cumulative = 8.73187e-05
DICPCG:  Solving for p_rgh, Initial residual = 0.000612643, Final residual = 2.23338e-05, No Iterations 13
time step continuity errors : sum local = 8.48391e-06, global = 1.81935e-06, cumulative = 8.9138e-05
DICPCG:  Solving for p_rgh, Initial residual = 0.000122548, Final residual = 8.44138e-08, No Iterations 50
time step continuity errors : sum local = 3.24914e-08, global = -5.14826e-10, cumulative = 8.91375e-05
smoothSolver:  Solving for epsilon, Initial residual = 0.0167667, Final residual = 6.65556e-08, No Iterations 4
smoothSolver:  Solving for k, Initial residual = 0.0138867, Final residual = 3.18614e-07, No Iterations 4
ExecutionTime = 0.69 s  ClockTime = 0 s

Courant Number mean: 0.0779559 max: 1.02852
Interface Courant Number mean: 0.00487858 max: 0.719299
deltaT = 0.00169973
Time = 0.131303

smoothSolver:  Solving for alpha.water, Initial residual = 0.00288619, Final residual = 8.01637e-11, No Iterations 3
Phase-1 volume fraction = 0.130194  Min(alpha.water) = -1.57962e-08  Max(alpha.water) = 1
MULES: Correcting alpha.water
MULES: Correcting alpha.water
Phase-1 volume fraction = 0.130194  Min(alpha.water) = -4.20152e-07  Max(alpha.water) = 1
DICPCG:  Solving for p_rgh, Initial residual = 0.00952863, Final residual = 0.000341802, No Iterations 1
time step continuity errors : sum local = 0.00011367, global = -2.95068e-07, cumulative = 8.88424e-05
DICPCG:  Solving for p_rgh, Initial residual = 0.000409889, Final residual = 1.60733e-05, No Iterations 13
time step continuity errors : sum local = 5.29821e-06, global = 9.42487e-07, cumulative = 8.97849e-05
DICPCG:  Solving for p_rgh, Initial residual = 9.09967e-05, Final residual = 8.52661e-08, No Iterations 49
time step continuity errors : sum local = 2.84357e-08, global = 1.74748e-10, cumulative = 8.97851e-05
smoothSolver:  Solving for epsilon, Initial residual = 0.0161135, Final residual = 6.89265e-07, No Iterations 3
smoothSolver:  Solving for k, Initial residual = 0.0127118, Final residual = 1.84556e-07, No Iterations 4
ExecutionTime = 0.71 s  ClockTime = 0 s

Courant Number mean: 0.0721063 max: 0.971206
Interface Courant Number mean: 0.00467695 max: 0.670084
deltaT = 0.00169973
Time = 0.133003

smoothSolver:  Solving for alpha.water, Initial residual = 0.00292203, Final residual = 8.74983e-11, No Iterations 3
Phase-1 volume fraction = 0.130194  Min(alpha.water) = -1.47541e-08  Max(alpha.water) = 1
MULES: Correcting alpha.water
MULES: Correcting alpha.water
Phase-1 volume fraction = 0.130194  Min(alpha.water) = -4.03261e-07  Max(alpha.water) = 1
DICPCG:  Solving for p_rgh, Initial residual = 0.0100291, Final residual = 0.000376868, No Iterations 1
time step continuity errors : sum local = 0.000125073, global = -1.45348e-07, cumulative = 8.96398e-05
DICPCG:  Solving for p_rgh, Initial residual = 0.000448231, Final residual = 1.83933e-05, No Iterations 13
time step continuity errors : sum local = 6.04846e-06, global = 1.01437e-06, cumulative = 9.06541e-05
DICPCG:  Solving for p_rgh, Initial residual = 9.80543e-05, Final residual = 9.75065e-08, No Iterations 49
time step continuity errors : sum local = 3.24497e-08, global = 2.35022e-10, cumulative = 9.06544e-05
smoothSolver:  Solving for epsilon, Initial residual = 0.0168492, Final residual = 7.07864e-07, No Iterations 3
smoothSolver:  Solving for k, Initial residual = 0.0127352, Final residual = 1.86265e-07, No Iterations 4
ExecutionTime = 0.72 s  ClockTime = 0 s

Courant Number mean: 0.072754 max: 1.0009
Interface Courant Number mean: 0.00486494 max: 0.796764
deltaT = 0.00169973
Time = 0.134702

smoothSolver:  Solving for alpha.water, Initial residual = 0.00294764, Final residual = 9.45125e-11, No Iterations 3
Phase-1 volume fraction = 0.130194  Min(alpha.water) = -1.38126e-08  Max(alpha.water) = 1
MULES: Correcting alpha.water
MULES: Correcting alpha.water
Phase-1 volume fraction = 0.130194  Min(alpha.water) = -3.82226e-07  Max(alpha.water) = 1
DICPCG:  Solving for p_rgh, Initial residual = 0.0105063, Final residual = 0.000424463, No Iterations 1
time step continuity errors : sum local = 0.000140542, global = -1.59856e-07, cumulative = 9.04945e-05
DICPCG:  Solving for p_rgh, Initial residual = 0.000502998, Final residual = 2.09772e-05, No Iterations 13
time step continuity errors : sum local = 6.88107e-06, global = 1.18973e-06, cumulative = 9.16842e-05
DICPCG:  Solving for p_rgh, Initial residual = 0.000106034, Final residual = 6.82199e-08, No Iterations 50
time step continuity errors : sum local = 2.26479e-08, global = -4.4603e-10, cumulative = 9.16838e-05
smoothSolver:  Solving for epsilon, Initial residual = 0.0175865, Final residual = 7.23356e-07, No Iterations 3
smoothSolver:  Solving for k, Initial residual = 0.0127552, Final residual = 1.8741e-07, No Iterations 4
ExecutionTime = 0.74 s  ClockTime = 0 s

Courant Number mean: 0.073382 max: 1.03092
Interface Courant Number mean: 0.00486816 max: 0.811112
deltaT = 0.00152976
Time = 0.136232

smoothSolver:  Solving for alpha.water, Initial residual = 0.00267389, Final residual = 5.112e-11, No Iterations 3
Phase-1 volume fraction = 0.130194  Min(alpha.water) = -1.30355e-08  Max(alpha.water) = 1
MULES: Correcting alpha.water
MULES: Correcting alpha.water
Phase-1 volume fraction = 0.130194  Min(alpha.water) = -2.46657e-07  Max(alpha.water) = 1.00001
DICPCG:  Solving for p_rgh, Initial residual = 0.0103142, Final residual = 0.000430158, No Iterations 1
time step continuity errors : sum local = 0.000118548, global = -1.71722e-07, cumulative = 9.15121e-05
DICPCG:  Solving for p_rgh, Initial residual = 0.000503168, Final residual = 1.92793e-05, No Iterations 13
time step continuity errors : sum local = 5.26556e-06, global = 9.67045e-07, cumulative = 9.24791e-05
DICPCG:  Solving for p_rgh, Initial residual = 9.29752e-05, Final residual = 8.72801e-08, No Iterations 49
time step continuity errors : sum local = 2.40973e-08, global = 5.93047e-11, cumulative = 9.24792e-05
smoothSolver:  Solving for epsilon, Initial residual = 0.0164315, Final residual = 4.13219e-07, No Iterations 3
smoothSolver:  Solving for k, Initial residual = 0.0114457, Final residual = 9.49592e-08, No Iterations 4
ExecutionTime = 0.75 s  ClockTime = 0 s

Courant Number mean: 0.0665332 max: 0.949004
Interface Courant Number mean: 0.00435915 max: 0.738278
deltaT = 0.00152976
Time = 0.137762

smoothSolver:  Solving for alpha.water, Initial residual = 0.00270031, Final residual = 5.33047e-11, No Iterations 3
Phase-1 volume fraction = 0.130194  Min(alpha.water) = -1.23202e-08  Max(alpha.water) = 1
MULES: Correcting alpha.water
MULES: Correcting alpha.water
Phase-1 volume fraction = 0.130194  Min(alpha.water) = -2.22788e-07  Max(alpha.water) = 1.00001
DICPCG:  Solving for p_rgh, Initial residual = 0.0110911, Final residual = 0.000512551, No Iterations 1
time step continuity errors : sum local = 0.000140768, global = -1.53957e-07, cumulative = 9.23252e-05
DICPCG:  Solving for p_rgh, Initial residual = 0.000591675, Final residual = 2.41308e-05, No Iterations 13
time step continuity errors : sum local = 6.56852e-06, global = 1.11369e-06, cumulative = 9.34389e-05
DICPCG:  Solving for p_rgh, Initial residual = 0.000106254, Final residual = 9.85267e-08, No Iterations 49
time step continuity errors : sum local = 2.71288e-08, global = -3.21552e-10, cumulative = 9.34386e-05
smoothSolver:  Solving for epsilon, Initial residual = 0.0169777, Final residual = 4.19385e-07, No Iterations 3
smoothSolver:  Solving for k, Initial residual = 0.011439, Final residual = 9.51517e-08, No Iterations 4
ExecutionTime = 0.77 s  ClockTime = 0 s

Courant Number mean: 0.0670072 max: 0.970188
Interface Courant Number mean: 0.00429921 max: 0.741921
deltaT = 0.00152976
Time = 0.139292

smoothSolver:  Solving for alpha.water, Initial residual = 0.00272632, Final residual = 5.621e-11, No Iterations 3
Phase-1 volume fraction = 0.130194  Min(alpha.water) = -1.16589e-08  Max(alpha.water) = 1
MULES: Correcting alpha.water
MULES: Correcting alpha.water
Phase-1 volume fraction = 0.130194  Min(alpha.water) = -1.92394e-07  Max(alpha.water) = 1
DICPCG:  Solving for p_rgh, Initial residual = 0.0110264, Final residual = 0.000218518, No Iterations 2
time step continuity errors : sum local = 5.9881e-05, global = -1.74624e-07, cumulative = 9.3264e-05
DICPCG:  Solving for p_rgh, Initial residual = 0.000270426, Final residual = 1.02845e-05, No Iterations 14
time step continuity errors : sum local = 2.79979e-06, global = 8.59194e-07, cumulative = 9.41232e-05
DICPCG:  Solving for p_rgh, Initial residual = 4.88223e-05, Final residual = 8.04036e-08, No Iterations 49
time step continuity errors : sum local = 2.21279e-08, global = -8.35825e-10, cumulative = 9.41223e-05
smoothSolver:  Solving for epsilon, Initial residual = 0.0175243, Final residual = 4.24455e-07, No Iterations 3
smoothSolver:  Solving for k, Initial residual = 0.011445, Final residual = 9.50215e-08, No Iterations 4
ExecutionTime = 0.78 s  ClockTime = 0 s

Courant Number mean: 0.0674581 max: 0.990485
Interface Courant Number mean: 0.00450025 max: 0.847992
deltaT = 0.00152976
Time = 0.140821

smoothSolver:  Solving for alpha.water, Initial residual = 0.00274991, Final residual = 6.00255e-11, No Iterations 3
Phase-1 volume fraction = 0.130194  Min(alpha.water) = -1.10449e-08  Max(alpha.water) = 1
MULES: Correcting alpha.water
MULES: Correcting alpha.water
Phase-1 volume fraction = 0.130194  Min(alpha.water) = -1.56186e-07  Max(alpha.water) = 1.00001
DICPCG:  Solving for p_rgh, Initial residual = 0.010247, Final residual = 0.000240505, No Iterations 2
time step continuity errors : sum local = 6.59648e-05, global = -1.46351e-07, cumulative = 9.3976e-05
DICPCG:  Solving for p_rgh, Initial residual = 0.000290801, Final residual = 1.07638e-05, No Iterations 14
time step continuity errors : sum local = 2.93915e-06, global = 8.32571e-07, cumulative = 9.48085e-05
DICPCG:  Solving for p_rgh, Initial residual = 5.13187e-05, Final residual = 8.36434e-08, No Iterations 49
time step continuity errors : sum local = 2.31011e-08, global = -1.24488e-09, cumulative = 9.48073e-05
smoothSolver:  Solving for epsilon, Initial residual = 0.0180448, Final residual = 4.29951e-07, No Iterations 3
smoothSolver:  Solving for k, Initial residual = 0.0114536, Final residual = 9.47649e-08, No Iterations 4
ExecutionTime = 0.8 s  ClockTime = 0 s

Courant Number mean: 0.0678993 max: 1.00796
Interface Courant Number mean: 0.00437518 max: 0.848874
deltaT = 0.00131122
Time = 0.142133

smoothSolver:  Solving for alpha.water, Initial residual = 0.00237642, Final residual = 9.50421e-09, No Iterations 2
Phase-1 volume fraction = 0.130194  Min(alpha.water) = -1.05493e-08  Max(alpha.water) = 1
MULES: Correcting alpha.water
MULES: Correcting alpha.water
Phase-1 volume fraction = 0.130194  Min(alpha.water) = -6.89626e-08  Max(alpha.water) = 1
DICPCG:  Solving for p_rgh, Initial residual = 0.00940001, Final residual = 0.000242122, No Iterations 2
time step continuity errors : sum local = 5.16115e-05, global = -1.11457e-07, cumulative = 9.46958e-05
DICPCG:  Solving for p_rgh, Initial residual = 0.00029104, Final residual = 1.28848e-05, No Iterations 14
time step continuity errors : sum local = 2.73509e-06, global = 7.87073e-07, cumulative = 9.54829e-05
DICPCG:  Solving for p_rgh, Initial residual = 4.65969e-05, Final residual = 6.82702e-08, No Iterations 49
time step continuity errors : sum local = 1.46234e-08, global = -4.99832e-10, cumulative = 9.54824e-05
smoothSolver:  Solving for epsilon, Initial residual = 0.0158182, Final residual = 1.84689e-07, No Iterations 3
smoothSolver:  Solving for k, Initial residual = 0.00978915, Final residual = 5.45574e-07, No Iterations 3
ExecutionTime = 0.81 s  ClockTime = 0 s

Courant Number mean: 0.0585054 max: 0.872236
Interface Courant Number mean: 0.00378581 max: 0.72507
deltaT = 0.00131122
Time = 0.143444

smoothSolver:  Solving for alpha.water, Initial residual = 0.00238551, Final residual = 9.70482e-09, No Iterations 2
Phase-1 volume fraction = 0.130194  Min(alpha.water) = -1.00828e-08  Max(alpha.water) = 1
MULES: Correcting alpha.water
MULES: Correcting alpha.water
Phase-1 volume fraction = 0.130194  Min(alpha.water) = -8.28061e-08  Max(alpha.water) = 1
DICPCG:  Solving for p_rgh, Initial residual = 0.00943769, Final residual = 0.000276289, No Iterations 2
time step continuity errors : sum local = 6.0268e-05, global = -1.29942e-07, cumulative = 9.53525e-05
DICPCG:  Solving for p_rgh, Initial residual = 0.000324981, Final residual = 1.19388e-05, No Iterations 14
time step continuity errors : sum local = 2.59893e-06, global = 6.30309e-07, cumulative = 9.59828e-05
DICPCG:  Solving for p_rgh, Initial residual = 5.28295e-05, Final residual = 7.95287e-08, No Iterations 49
time step continuity errors : sum local = 1.74918e-08, global = -6.29056e-10, cumulative = 9.59821e-05
smoothSolver:  Solving for epsilon, Initial residual = 0.0160888, Final residual = 1.88357e-07, No Iterations 3
smoothSolver:  Solving for k, Initial residual = 0.00980349, Final residual = 5.44094e-07, No Iterations 3
ExecutionTime = 0.83 s  ClockTime = 1 s

Courant Number mean: 0.0588132 max: 0.877274
Interface Courant Number mean: 0.0036552 max: 0.712694
deltaT = 0.00131122
Time = 0.144755

smoothSolver:  Solving for alpha.water, Initial residual = 0.00239368, Final residual = 9.87253e-09, No Iterations 2
Phase-1 volume fraction = 0.130194  Min(alpha.water) = -9.64436e-09  Max(alpha.water) = 1
MULES: Correcting alpha.water
MULES: Correcting alpha.water
Phase-1 volume fraction = 0.130194  Min(alpha.water) = -1.03654e-07  Max(alpha.water) = 1
DICPCG:  Solving for p_rgh, Initial residual = 0.00819893, Final residual = 0.000382771, No Iterations 1
time step continuity errors : sum local = 8.53254e-05, global = -1.03312e-07, cumulative = 9.58788e-05
DICPCG:  Solving for p_rgh, Initial residual = 0.000458824, Final residual = 1.34597e-05, No Iterations 14
time step continuity errors : sum local = 2.98883e-06, global = 4.79619e-07, cumulative = 9.63585e-05
DICPCG:  Solving for p_rgh, Initial residual = 8.91639e-05, Final residual = 8.05421e-08, No Iterations 49
time step continuity errors : sum local = 1.81202e-08, global = -6.34616e-10, cumulative = 9.63578e-05
smoothSolver:  Solving for epsilon, Initial residual = 0.0163035, Final residual = 1.92749e-07, No Iterations 3
smoothSolver:  Solving for k, Initial residual = 0.00982614, Final residual = 5.43766e-07, No Iterations 3
ExecutionTime = 0.85 s  ClockTime = 1 s

Courant Number mean: 0.059113 max: 0.876761
Interface Courant Number mean: 0.00366676 max: 0.692545
deltaT = 0.00131122
Time = 0.146066

smoothSolver:  Solving for alpha.water, Initial residual = 0.00242333, Final residual = 2.64487e-11, No Iterations 3
Phase-1 volume fraction = 0.130194  Min(alpha.water) = -9.23068e-09  Max(alpha.water) = 1
MULES: Correcting alpha.water
MULES: Correcting alpha.water
Phase-1 volume fraction = 0.130194  Min(alpha.water) = -1.2132e-07  Max(alpha.water) = 1.00002
DICPCG:  Solving for p_rgh, Initial residual = 0.00807002, Final residual = 0.000313243, No Iterations 1
time step continuity errors : sum local = 7.04299e-05, global = -7.37159e-08, cumulative = 9.62841e-05
DICPCG:  Solving for p_rgh, Initial residual = 0.000387885, Final residual = 1.33499e-05, No Iterations 14
time step continuity errors : sum local = 2.98738e-06, global = 3.30357e-07, cumulative = 9.66145e-05
DICPCG:  Solving for p_rgh, Initial residual = 8.89275e-05, Final residual = 7.97373e-08, No Iterations 48
time step continuity errors : sum local = 1.80837e-08, global = -2.50504e-10, cumulative = 9.66142e-05
smoothSolver:  Solving for epsilon, Initial residual = 0.0166096, Final residual = 1.9881e-07, No Iterations 3
smoothSolver:  Solving for k, Initial residual = 0.00989052, Final residual = 5.46366e-07, No Iterations 3
ExecutionTime = 0.86 s  ClockTime = 1 s

Courant Number mean: 0.0594054 max: 0.868246
Interface Courant Number mean: 0.00396742 max: 0.778624
deltaT = 0.00131122
Time = 0.147378

smoothSolver:  Solving for alpha.water, Initial residual = 0.00244429, Final residual = 2.72975e-11, No Iterations 3
Phase-1 volume fraction = 0.130194  Min(alpha.water) = -8.84053e-09  Max(alpha.water) = 1
MULES: Correcting alpha.water
MULES: Correcting alpha.water
Phase-1 volume fraction = 0.130194  Min(alpha.water) = -1.36643e-07  Max(alpha.water) = 1.00001
DICPCG:  Solving for p_rgh, Initial residual = 0.00836481, Final residual = 0.000368926, No Iterations 1
time step continuity errors : sum local = 8.32279e-05, global = -4.71829e-08, cumulative = 9.6567e-05
DICPCG:  Solving for p_rgh, Initial residual = 0.000461903, Final residual = 1.67392e-05, No Iterations 14
time step continuity errors : sum local = 3.75922e-06, global = 3.67889e-07, cumulative = 9.69349e-05
DICPCG:  Solving for p_rgh, Initial residual = 0.000106876, Final residual = 9.40225e-08, No Iterations 48
time step continuity errors : sum local = 2.14318e-08, global = -5.55466e-10, cumulative = 9.69344e-05
smoothSolver:  Solving for epsilon, Initial residual = 0.016852, Final residual = 2.07039e-07, No Iterations 3
smoothSolver:  Solving for k, Initial residual = 0.00993942, Final residual = 5.48258e-07, No Iterations 3
ExecutionTime = 0.88 s  ClockTime = 1 s

Courant Number mean: 0.0597024 max: 0.839995
Interface Courant Number mean: 0.00397489 max: 0.742953
deltaT = 0.00131122
Time = 0.148689

smoothSolver:  Solving for alpha.water, Initial residual = 0.00247542, Final residual = 2.78895e-11, No Iterations 3
Phase-1 volume fraction = 0.130194  Min(alpha.water) = -8.47092e-09  Max(alpha.water) = 1
MULES: Correcting alpha.water
MULES: Correcting alpha.water
Phase-1 volume fraction = 0.130194  Min(alpha.water) = -1.49951e-07  Max(alpha.water) = 1
DICPCG:  Solving for p_rgh, Initial residual = 0.00872116, Final residual = 0.000396594, No Iterations 1
time step continuity errors : sum local = 8.98867e-05, global = -5.61133e-08, cumulative = 9.68782e-05
DICPCG:  Solving for p_rgh, Initial residual = 0.000487912, Final residual = 1.82737e-05, No Iterations 14
time step continuity errors : sum local = 4.1214e-06, global = 4.16938e-07, cumulative = 9.72952e-05
DICPCG:  Solving for p_rgh, Initial residual = 0.000112466, Final residual = 9.25408e-08, No Iterations 48
time step continuity errors : sum local = 2.11896e-08, global = -9.93654e-10, cumulative = 9.72942e-05
smoothSolver:  Solving for epsilon, Initial residual = 0.0171708, Final residual = 2.17315e-07, No Iterations 3
smoothSolver:  Solving for k, Initial residual = 0.010017, Final residual = 5.50125e-07, No Iterations 3
ExecutionTime = 0.89 s  ClockTime = 1 s

Courant Number mean: 0.0599888 max: 0.806721
Interface Courant Number mean: 0.00386138 max: 0.709537
deltaT = 0.00131122
Time = 0.15

smoothSolver:  Solving for alpha.water, Initial residual = 0.00250026, Final residual = 2.89909e-11, No Iterations 3
Phase-1 volume fraction = 0.130194  Min(alpha.water) = -8.11995e-09  Max(alpha.water) = 1
MULES: Correcting alpha.water
MULES: Correcting alpha.water
Phase-1 volume fraction = 0.130194  Min(alpha.water) = -1.62503e-07  Max(alpha.water) = 1.00001
DICPCG:  Solving for p_rgh, Initial residual = 0.0090642, Final residual = 0.000452185, No Iterations 1
time step continuity errors : sum local = 0.000102838, global = -6.6644e-08, cumulative = 9.72275e-05
DICPCG:  Solving for p_rgh, Initial residual = 0.00056375, Final residual = 2.24209e-05, No Iterations 14
time step continuity errors : sum local = 5.07303e-06, global = 4.71073e-07, cumulative = 9.76986e-05
DICPCG:  Solving for p_rgh, Initial residual = 0.000115975, Final residual = 8.5242e-08, No Iterations 49
time step continuity errors : sum local = 1.96013e-08, global = -7.07562e-10, cumulative = 9.76979e-05
smoothSolver:  Solving for epsilon, Initial residual = 0.0170171, Final residual = 2.26044e-07, No Iterations 3
smoothSolver:  Solving for k, Initial residual = 0.0100365, Final residual = 5.48375e-07, No Iterations 3
ExecutionTime = 0.92 s  ClockTime = 1 s

Courant Number mean: 0.0602488 max: 0.759371
Interface Courant Number mean: 0.00413287 max: 0.759371
deltaT = 0.00147059
Time = 0.151471

smoothSolver:  Solving for alpha.water, Initial residual = 0.0028592, Final residual = 6.27935e-11, No Iterations 3
Phase-1 volume fraction = 0.130194  Min(alpha.water) = -8.12969e-09  Max(alpha.water) = 1
MULES: Correcting alpha.water
MULES: Correcting alpha.water
Phase-1 volume fraction = 0.130194  Min(alpha.water) = -2.80229e-07  Max(alpha.water) = 1.00001
DICPCG:  Solving for p_rgh, Initial residual = 0.0103392, Final residual = 0.00029736, No Iterations 2
time step continuity errors : sum local = 8.29603e-05, global = -8.44935e-08, cumulative = 9.76134e-05
DICPCG:  Solving for p_rgh, Initial residual = 0.000414613, Final residual = 1.80604e-05, No Iterations 14
time step continuity errors : sum local = 5.02564e-06, global = 6.71888e-07, cumulative = 9.82853e-05
DICPCG:  Solving for p_rgh, Initial residual = 9.19837e-05, Final residual = 9.13919e-08, No Iterations 49
time step continuity errors : sum local = 2.58438e-08, global = -1.08347e-09, cumulative = 9.82842e-05
smoothSolver:  Solving for epsilon, Initial residual = 0.0189753, Final residual = 4.37082e-07, No Iterations 3
smoothSolver:  Solving for k, Initial residual = 0.0111958, Final residual = 7.30848e-08, No Iterations 4
ExecutionTime = 0.94 s  ClockTime = 1 s

Courant Number mean: 0.0678662 max: 0.838458
Interface Courant Number mean: 0.00470081 max: 0.807403
deltaT = 0.00161765
Time = 0.153088

smoothSolver:  Solving for alpha.water, Initial residual = 0.00314411, Final residual = 1.19296e-10, No Iterations 3
Phase-1 volume fraction = 0.130194  Min(alpha.water) = -7.87027e-09  Max(alpha.water) = 1
MULES: Correcting alpha.water
MULES: Correcting alpha.water
Phase-1 volume fraction = 0.130194  Min(alpha.water) = -3.99291e-07  Max(alpha.water) = 1.00001
DICPCG:  Solving for p_rgh, Initial residual = 0.0107597, Final residual = 0.000363761, No Iterations 2
time step continuity errors : sum local = 0.000120466, global = -1.30852e-07, cumulative = 9.81534e-05
DICPCG:  Solving for p_rgh, Initial residual = 0.000523352, Final residual = 2.46766e-05, No Iterations 16
time step continuity errors : sum local = 8.15961e-06, global = 5.26452e-07, cumulative = 9.86798e-05
DICPCG:  Solving for p_rgh, Initial residual = 0.000137274, Final residual = 9.40676e-08, No Iterations 49
time step continuity errors : sum local = 3.17231e-08, global = -3.53844e-09, cumulative = 9.86763e-05
smoothSolver:  Solving for epsilon, Initial residual = 0.0205695, Final residual = 7.31631e-07, No Iterations 3
smoothSolver:  Solving for k, Initial residual = 0.0122779, Final residual = 1.34127e-07, No Iterations 4
ExecutionTime = 0.95 s  ClockTime = 1 s

Courant Number mean: 0.0750104 max: 0.932656
Interface Courant Number mean: 0.00525201 max: 0.861453
deltaT = 0.00167542
Time = 0.154764

smoothSolver:  Solving for alpha.water, Initial residual = 0.00327035, Final residual = 1.52845e-10, No Iterations 3
Phase-1 volume fraction = 0.130194  Min(alpha.water) = -7.58189e-09  Max(alpha.water) = 1
MULES: Correcting alpha.water
MULES: Correcting alpha.water
Phase-1 volume fraction = 0.130194  Min(alpha.water) = -4.28149e-07  Max(alpha.water) = 1.00001
DICPCG:  Solving for p_rgh, Initial residual = 0.0105148, Final residual = 0.000317561, No Iterations 2
time step continuity errors : sum local = 0.000112867, global = -1.33788e-07, cumulative = 9.85425e-05
DICPCG:  Solving for p_rgh, Initial residual = 0.000436505, Final residual = 1.4691e-05, No Iterations 15
time step continuity errors : sum local = 5.20987e-06, global = 2.66195e-07, cumulative = 9.88087e-05
DICPCG:  Solving for p_rgh, Initial residual = 9.73909e-05, Final residual = 8.98672e-08, No Iterations 35
time step continuity errors : sum local = 3.24902e-08, global = -8.93129e-09, cumulative = 9.87998e-05
smoothSolver:  Solving for epsilon, Initial residual = 0.0204987, Final residual = 8.11226e-07, No Iterations 3
smoothSolver:  Solving for k, Initial residual = 0.0125294, Final residual = 1.64123e-07, No Iterations 4
ExecutionTime = 0.97 s  ClockTime = 1 s

Courant Number mean: 0.0780469 max: 0.964095
Interface Courant Number mean: 0.00577367 max: 0.941894
deltaT = 0.00167542
Time = 0.156439

smoothSolver:  Solving for alpha.water, Initial residual = 0.00326399, Final residual = 1.57282e-10, No Iterations 3
Phase-1 volume fraction = 0.130194  Min(alpha.water) = -7.27844e-09  Max(alpha.water) = 1
MULES: Correcting alpha.water
MULES: Correcting alpha.water
Phase-1 volume fraction = 0.130194  Min(alpha.water) = -3.29802e-07  Max(alpha.water) = 1
DICPCG:  Solving for p_rgh, Initial residual = 0.0101366, Final residual = 0.000320748, No Iterations 2
time step continuity errors : sum local = 0.00011505, global = -7.32723e-08, cumulative = 9.87265e-05
DICPCG:  Solving for p_rgh, Initial residual = 0.000422102, Final residual = 1.44472e-05, No Iterations 15
time step continuity errors : sum local = 5.17678e-06, global = 7.80914e-07, cumulative = 9.95074e-05
DICPCG:  Solving for p_rgh, Initial residual = 8.58624e-05, Final residual = 7.69056e-08, No Iterations 50
time step continuity errors : sum local = 2.81298e-08, global = 3.81783e-10, cumulative = 9.95078e-05
[...]
time step continuity errors : sum local = 2.89209e-05, global = 2.20668e-06, cumulative = 0.00157779
DICPCG:  Solving for p_rgh, Initial residual = 0.000153106, Final residual = 8.40128e-08, No Iterations 46
time step continuity errors : sum local = 1.27475e-07, global = 1.25076e-08, cumulative = 0.0015778
smoothSolver:  Solving for epsilon, Initial residual = 0.0122511, Final residual = 4.13211e-07, No Iterations 6
smoothSolver:  Solving for k, Initial residual = 0.0119714, Final residual = 3.95538e-07, No Iterations 7
ExecutionTime = 6.1 s  ClockTime = 6 s

Courant Number mean: 0.171815 max: 0.852517
Interface Courant Number mean: 0.044578 max: 0.850974
deltaT = 0.00555556
Time = 0.927778

smoothSolver:  Solving for alpha.water, Initial residual = 0.00873754, Final residual = 7.0596e-10, No Iterations 4
Phase-1 volume fraction = 0.130118  Min(alpha.water) = -1.51153e-13  Max(alpha.water) = 1.00007
MULES: Correcting alpha.water
MULES: Correcting alpha.water
Phase-1 volume fraction = 0.130118  Min(alpha.water) = -2.08445e-05  Max(alpha.water) = 1.00007
DICPCG:  Solving for p_rgh, Initial residual = 0.0107667, Final residual = 0.000379057, No Iterations 2
time step continuity errors : sum local = 0.00057525, global = -4.46752e-07, cumulative = 0.00157736
DICPCG:  Solving for p_rgh, Initial residual = 0.000501531, Final residual = 1.91411e-05, No Iterations 11
time step continuity errors : sum local = 2.90835e-05, global = 2.15757e-06, cumulative = 0.00157951
DICPCG:  Solving for p_rgh, Initial residual = 0.000154797, Final residual = 9.19667e-08, No Iterations 45
time step continuity errors : sum local = 1.40031e-07, global = 1.63237e-08, cumulative = 0.00157953
smoothSolver:  Solving for epsilon, Initial residual = 0.0128926, Final residual = 4.40622e-07, No Iterations 6
smoothSolver:  Solving for k, Initial residual = 0.0120731, Final residual = 4.22305e-07, No Iterations 7
ExecutionTime = 6.11 s  ClockTime = 6 s

Courant Number mean: 0.170739 max: 0.847683
Interface Courant Number mean: 0.0445211 max: 0.837544
deltaT = 0.00555556
Time = 0.933333

smoothSolver:  Solving for alpha.water, Initial residual = 0.00855855, Final residual = 6.17511e-10, No Iterations 4
Phase-1 volume fraction = 0.130118  Min(alpha.water) = -1.19871e-13  Max(alpha.water) = 1.00006
MULES: Correcting alpha.water
MULES: Correcting alpha.water
Phase-1 volume fraction = 0.130118  Min(alpha.water) = -2.53896e-05  Max(alpha.water) = 1.00006
DICPCG:  Solving for p_rgh, Initial residual = 0.0109893, Final residual = 0.000382857, No Iterations 2
time step continuity errors : sum local = 0.00058359, global = -6.04851e-07, cumulative = 0.00157893
DICPCG:  Solving for p_rgh, Initial residual = 0.000499894, Final residual = 1.80452e-05, No Iterations 11
time step continuity errors : sum local = 2.75364e-05, global = 2.49905e-06, cumulative = 0.00158142
DICPCG:  Solving for p_rgh, Initial residual = 0.000154392, Final residual = 9.05689e-08, No Iterations 45
time step continuity errors : sum local = 1.384e-07, global = 1.54869e-08, cumulative = 0.00158144
smoothSolver:  Solving for epsilon, Initial residual = 0.0134803, Final residual = 4.72751e-07, No Iterations 6
smoothSolver:  Solving for k, Initial residual = 0.0121416, Final residual = 4.53364e-07, No Iterations 7
ExecutionTime = 6.13 s  ClockTime = 6 s

Courant Number mean: 0.169723 max: 0.84111
Interface Courant Number mean: 0.0438613 max: 0.8259
deltaT = 0.00555556
Time = 0.938889

smoothSolver:  Solving for alpha.water, Initial residual = 0.0083848, Final residual = 5.49466e-10, No Iterations 4
Phase-1 volume fraction = 0.130118  Min(alpha.water) = -6.58285e-14  Max(alpha.water) = 1.00005
MULES: Correcting alpha.water
MULES: Correcting alpha.water
Phase-1 volume fraction = 0.130118  Min(alpha.water) = -7.42336e-05  Max(alpha.water) = 1.00005
DICPCG:  Solving for p_rgh, Initial residual = 0.0107386, Final residual = 0.000345756, No Iterations 2
time step continuity errors : sum local = 0.000529112, global = -7.31479e-07, cumulative = 0.00158071
DICPCG:  Solving for p_rgh, Initial residual = 0.00045494, Final residual = 1.70911e-05, No Iterations 11
time step continuity errors : sum local = 2.61785e-05, global = 1.80832e-06, cumulative = 0.00158252
DICPCG:  Solving for p_rgh, Initial residual = 0.000143305, Final residual = 9.96072e-08, No Iterations 45
time step continuity errors : sum local = 1.52898e-07, global = 2.01291e-08, cumulative = 0.00158254
smoothSolver:  Solving for epsilon, Initial residual = 0.0140306, Final residual = 5.0634e-07, No Iterations 6
smoothSolver:  Solving for k, Initial residual = 0.0121789, Final residual = 4.83195e-07, No Iterations 7
ExecutionTime = 6.14 s  ClockTime = 6 s

Courant Number mean: 0.168818 max: 0.833617
Interface Courant Number mean: 0.043749 max: 0.816588
deltaT = 0.00555556
Time = 0.944444

smoothSolver:  Solving for alpha.water, Initial residual = 0.0082022, Final residual = 4.7344e-10, No Iterations 4
Phase-1 volume fraction = 0.130118  Min(alpha.water) = -1.0958e-07  Max(alpha.water) = 1.00005
MULES: Correcting alpha.water
MULES: Correcting alpha.water
Phase-1 volume fraction = 0.130118  Min(alpha.water) = -0.000124191  Max(alpha.water) = 1.00005
DICPCG:  Solving for p_rgh, Initial residual = 0.0111133, Final residual = 0.000333308, No Iterations 2
time step continuity errors : sum local = 0.000511892, global = -4.68939e-07, cumulative = 0.00158207
DICPCG:  Solving for p_rgh, Initial residual = 0.000433335, Final residual = 1.73933e-05, No Iterations 11
time step continuity errors : sum local = 2.67278e-05, global = 2.05099e-06, cumulative = 0.00158412
DICPCG:  Solving for p_rgh, Initial residual = 0.000135944, Final residual = 9.97821e-08, No Iterations 45
time step continuity errors : sum local = 1.53641e-07, global = 1.92881e-08, cumulative = 0.00158414
smoothSolver:  Solving for epsilon, Initial residual = 0.0145093, Final residual = 5.4081e-07, No Iterations 6
smoothSolver:  Solving for k, Initial residual = 0.0122012, Final residual = 5.11461e-07, No Iterations 7
ExecutionTime = 6.16 s  ClockTime = 6 s

Courant Number mean: 0.168001 max: 0.825328
Interface Courant Number mean: 0.0426373 max: 0.806671
deltaT = 0.00555556
Time = 0.95

smoothSolver:  Solving for alpha.water, Initial residual = 0.00806572, Final residual = 4.08557e-10, No Iterations 4
Phase-1 volume fraction = 0.130118  Min(alpha.water) = -6.65616e-08  Max(alpha.water) = 1.00004
MULES: Correcting alpha.water
MULES: Correcting alpha.water
Phase-1 volume fraction = 0.130118  Min(alpha.water) = -0.000176989  Max(alpha.water) = 1.00004
DICPCG:  Solving for p_rgh, Initial residual = 0.0109, Final residual = 0.000341547, No Iterations 2
time step continuity errors : sum local = 0.000525108, global = -6.44787e-07, cumulative = 0.00158349
DICPCG:  Solving for p_rgh, Initial residual = 0.000434608, Final residual = 1.85799e-05, No Iterations 11
time step continuity errors : sum local = 2.85832e-05, global = 1.81179e-06, cumulative = 0.00158531
DICPCG:  Solving for p_rgh, Initial residual = 0.000137009, Final residual = 9.78854e-08, No Iterations 45
time step continuity errors : sum local = 1.51041e-07, global = 1.9587e-08, cumulative = 0.00158532
smoothSolver:  Solving for epsilon, Initial residual = 0.0149092, Final residual = 5.76509e-07, No Iterations 6
smoothSolver:  Solving for k, Initial residual = 0.0121846, Final residual = 5.39331e-07, No Iterations 7
ExecutionTime = 6.19 s  ClockTime = 6 s

Courant Number mean: 0.167234 max: 0.816247
Interface Courant Number mean: 0.0423197 max: 0.796345
deltaT = 0.00555556
Time = 0.955556

smoothSolver:  Solving for alpha.water, Initial residual = 0.00795146, Final residual = 3.60289e-10, No Iterations 4
Phase-1 volume fraction = 0.130118  Min(alpha.water) = -4.17676e-08  Max(alpha.water) = 1.00004
MULES: Correcting alpha.water
MULES: Correcting alpha.water
Phase-1 volume fraction = 0.130118  Min(alpha.water) = -0.000217223  Max(alpha.water) = 1.00004
DICPCG:  Solving for p_rgh, Initial residual = 0.00919572, Final residual = 0.000326666, No Iterations 2
time step continuity errors : sum local = 0.000502177, global = -5.82998e-07, cumulative = 0.00158474
DICPCG:  Solving for p_rgh, Initial residual = 0.000419062, Final residual = 1.65856e-05, No Iterations 11
time step continuity errors : sum local = 2.55022e-05, global = 1.72033e-06, cumulative = 0.00158646
DICPCG:  Solving for p_rgh, Initial residual = 0.000128337, Final residual = 9.82743e-08, No Iterations 44
time step continuity errors : sum local = 1.5153e-07, global = 1.29164e-08, cumulative = 0.00158648
smoothSolver:  Solving for epsilon, Initial residual = 0.0152059, Final residual = 6.09803e-07, No Iterations 6
smoothSolver:  Solving for k, Initial residual = 0.0121423, Final residual = 5.63091e-07, No Iterations 7
ExecutionTime = 6.21 s  ClockTime = 6 s

Courant Number mean: 0.166531 max: 0.807534
Interface Courant Number mean: 0.0422776 max: 0.786535
deltaT = 0.00555556
Time = 0.961111

smoothSolver:  Solving for alpha.water, Initial residual = 0.00778384, Final residual = 3.1295e-10, No Iterations 4
Phase-1 volume fraction = 0.130118  Min(alpha.water) = -2.84145e-08  Max(alpha.water) = 1.00004
MULES: Correcting alpha.water
MULES: Correcting alpha.water
Phase-1 volume fraction = 0.130118  Min(alpha.water) = -0.000209828  Max(alpha.water) = 1.00004
DICPCG:  Solving for p_rgh, Initial residual = 0.00936811, Final residual = 0.000317956, No Iterations 2
time step continuity errors : sum local = 0.000488931, global = -5.87657e-07, cumulative = 0.00158589
DICPCG:  Solving for p_rgh, Initial residual = 0.00040955, Final residual = 1.65306e-05, No Iterations 11
time step continuity errors : sum local = 2.54155e-05, global = 1.80689e-06, cumulative = 0.00158769
DICPCG:  Solving for p_rgh, Initial residual = 0.000123879, Final residual = 9.00129e-08, No Iterations 44
time step continuity errors : sum local = 1.38781e-07, global = 8.67168e-09, cumulative = 0.0015877
smoothSolver:  Solving for epsilon, Initial residual = 0.0153588, Final residual = 6.4525e-07, No Iterations 6
smoothSolver:  Solving for k, Initial residual = 0.0120859, Final residual = 5.89303e-07, No Iterations 7
ExecutionTime = 6.23 s  ClockTime = 6 s

Courant Number mean: 0.165937 max: 0.798577
Interface Courant Number mean: 0.0421652 max: 0.779414
deltaT = 0.00555556
Time = 0.966667

smoothSolver:  Solving for alpha.water, Initial residual = 0.00758179, Final residual = 2.83858e-10, No Iterations 4
Phase-1 volume fraction = 0.130118  Min(alpha.water) = -1.78884e-08  Max(alpha.water) = 1.00003
MULES: Correcting alpha.water
MULES: Correcting alpha.water
Phase-1 volume fraction = 0.130118  Min(alpha.water) = -0.000182303  Max(alpha.water) = 1.00003
DICPCG:  Solving for p_rgh, Initial residual = 0.00986321, Final residual = 0.000332289, No Iterations 2
time step continuity errors : sum local = 0.000507942, global = -6.69215e-07, cumulative = 0.00158703
DICPCG:  Solving for p_rgh, Initial residual = 0.000430981, Final residual = 1.66176e-05, No Iterations 11
time step continuity errors : sum local = 2.53854e-05, global = 1.78517e-06, cumulative = 0.00158882
DICPCG:  Solving for p_rgh, Initial residual = 0.000124737, Final residual = 8.16799e-08, No Iterations 44
time step continuity errors : sum local = 1.25201e-07, global = 7.64071e-09, cumulative = 0.00158883
smoothSolver:  Solving for epsilon, Initial residual = 0.0153824, Final residual = 6.83848e-07, No Iterations 6
smoothSolver:  Solving for k, Initial residual = 0.0120114, Final residual = 6.19906e-07, No Iterations 7
ExecutionTime = 6.24 s  ClockTime = 6 s

Courant Number mean: 0.165372 max: 0.789258
Interface Courant Number mean: 0.0425744 max: 0.772316
deltaT = 0.00555556
Time = 0.972222

smoothSolver:  Solving for alpha.water, Initial residual = 0.00743369, Final residual = 2.79051e-10, No Iterations 4
Phase-1 volume fraction = 0.130118  Min(alpha.water) = -1.31765e-08  Max(alpha.water) = 1.00003
MULES: Correcting alpha.water
MULES: Correcting alpha.water
Phase-1 volume fraction = 0.130118  Min(alpha.water) = -0.000158377  Max(alpha.water) = 1.00003
DICPCG:  Solving for p_rgh, Initial residual = 0.0112736, Final residual = 0.000353345, No Iterations 2
time step continuity errors : sum local = 0.000541394, global = -6.90822e-07, cumulative = 0.00158814
DICPCG:  Solving for p_rgh, Initial residual = 0.000455112, Final residual = 1.76978e-05, No Iterations 11
time step continuity errors : sum local = 2.70842e-05, global = 2.11812e-06, cumulative = 0.00159025
DICPCG:  Solving for p_rgh, Initial residual = 0.000130762, Final residual = 8.30864e-08, No Iterations 44
time step continuity errors : sum local = 1.27609e-07, global = 6.5573e-09, cumulative = 0.00159026
smoothSolver:  Solving for epsilon, Initial residual = 0.0153597, Final residual = 7.21441e-07, No Iterations 6
smoothSolver:  Solving for k, Initial residual = 0.0119708, Final residual = 6.49988e-07, No Iterations 7
ExecutionTime = 6.27 s  ClockTime = 6 s

Courant Number mean: 0.164796 max: 0.780511
Interface Courant Number mean: 0.0417644 max: 0.765541
deltaT = 0.00555556
Time = 0.977778

smoothSolver:  Solving for alpha.water, Initial residual = 0.00737876, Final residual = 2.74055e-10, No Iterations 4
Phase-1 volume fraction = 0.130118  Min(alpha.water) = -9.98339e-09  Max(alpha.water) = 1.00003
MULES: Correcting alpha.water
MULES: Correcting alpha.water
Phase-1 volume fraction = 0.130118  Min(alpha.water) = -0.000136994  Max(alpha.water) = 1.00003
DICPCG:  Solving for p_rgh, Initial residual = 0.0114027, Final residual = 0.000348856, No Iterations 2
time step continuity errors : sum local = 0.000536287, global = -8.8713e-07, cumulative = 0.00158937
DICPCG:  Solving for p_rgh, Initial residual = 0.000450494, Final residual = 1.6696e-05, No Iterations 11
time step continuity errors : sum local = 2.56654e-05, global = 1.91317e-06, cumulative = 0.00159129
DICPCG:  Solving for p_rgh, Initial residual = 0.000129626, Final residual = 9.25752e-08, No Iterations 42
time step continuity errors : sum local = 1.42808e-07, global = 3.0123e-09, cumulative = 0.00159129
smoothSolver:  Solving for epsilon, Initial residual = 0.0152866, Final residual = 7.53348e-07, No Iterations 6
smoothSolver:  Solving for k, Initial residual = 0.0119397, Final residual = 6.73835e-07, No Iterations 7
ExecutionTime = 6.28 s  ClockTime = 6 s

Courant Number mean: 0.164199 max: 0.772433
Interface Courant Number mean: 0.0418311 max: 0.759032
deltaT = 0.00555556
Time = 0.983333

smoothSolver:  Solving for alpha.water, Initial residual = 0.00731432, Final residual = 2.83928e-10, No Iterations 4
Phase-1 volume fraction = 0.130118  Min(alpha.water) = -7.35692e-09  Max(alpha.water) = 1.00003
MULES: Correcting alpha.water
MULES: Correcting alpha.water
Phase-1 volume fraction = 0.130118  Min(alpha.water) = -0.000116157  Max(alpha.water) = 1.00003
DICPCG:  Solving for p_rgh, Initial residual = 0.0105231, Final residual = 0.000321621, No Iterations 2
time step continuity errors : sum local = 0.00049638, global = -8.52046e-07, cumulative = 0.00159044
DICPCG:  Solving for p_rgh, Initial residual = 0.000413875, Final residual = 1.60344e-05, No Iterations 11
time step continuity errors : sum local = 2.47515e-05, global = 1.29643e-06, cumulative = 0.00159173
DICPCG:  Solving for p_rgh, Initial residual = 0.000117388, Final residual = 8.8564e-08, No Iterations 42
time step continuity errors : sum local = 1.37263e-07, global = 6.82026e-09, cumulative = 0.00159174
smoothSolver:  Solving for epsilon, Initial residual = 0.0151574, Final residual = 7.73836e-07, No Iterations 6
smoothSolver:  Solving for k, Initial residual = 0.0118485, Final residual = 6.84976e-07, No Iterations 7
ExecutionTime = 6.3 s  ClockTime = 6 s

Courant Number mean: 0.163545 max: 0.762719
Interface Courant Number mean: 0.0420948 max: 0.752152
deltaT = 0.00555556
Time = 0.988889

smoothSolver:  Solving for alpha.water, Initial residual = 0.0072685, Final residual = 3.03874e-10, No Iterations 4
Phase-1 volume fraction = 0.130118  Min(alpha.water) = -9.77818e-08  Max(alpha.water) = 1.00002
MULES: Correcting alpha.water
MULES: Correcting alpha.water
Phase-1 volume fraction = 0.130118  Min(alpha.water) = -9.66242e-05  Max(alpha.water) = 1.00002
DICPCG:  Solving for p_rgh, Initial residual = 0.0108115, Final residual = 0.000318498, No Iterations 2
time step continuity errors : sum local = 0.000493446, global = -5.43065e-07, cumulative = 0.0015912
DICPCG:  Solving for p_rgh, Initial residual = 0.000410239, Final residual = 1.63586e-05, No Iterations 11
time step continuity errors : sum local = 2.53518e-05, global = 1.69185e-06, cumulative = 0.00159289
DICPCG:  Solving for p_rgh, Initial residual = 0.00011588, Final residual = 7.73758e-08, No Iterations 42
time step continuity errors : sum local = 1.20448e-07, global = 1.43709e-09, cumulative = 0.00159289
smoothSolver:  Solving for epsilon, Initial residual = 0.0149824, Final residual = 7.87496e-07, No Iterations 6
smoothSolver:  Solving for k, Initial residual = 0.011726, Final residual = 6.89556e-07, No Iterations 7
ExecutionTime = 6.31 s  ClockTime = 6 s

Courant Number mean: 0.162789 max: 0.749154
Interface Courant Number mean: 0.0414632 max: 0.744012
deltaT = 0.00555556
Time = 0.994444

smoothSolver:  Solving for alpha.water, Initial residual = 0.00722893, Final residual = 3.12017e-10, No Iterations 4
Phase-1 volume fraction = 0.130118  Min(alpha.water) = -7.41577e-08  Max(alpha.water) = 1.00002
MULES: Correcting alpha.water
MULES: Correcting alpha.water
Phase-1 volume fraction = 0.130118  Min(alpha.water) = -8.11035e-05  Max(alpha.water) = 1.00002
DICPCG:  Solving for p_rgh, Initial residual = 0.0106382, Final residual = 0.000320374, No Iterations 2
time step continuity errors : sum local = 0.000497985, global = -7.54007e-07, cumulative = 0.00159214
DICPCG:  Solving for p_rgh, Initial residual = 0.000409343, Final residual = 1.6436e-05, No Iterations 11
time step continuity errors : sum local = 2.55618e-05, global = 1.37861e-06, cumulative = 0.00159352
DICPCG:  Solving for p_rgh, Initial residual = 0.000117687, Final residual = 7.26563e-08, No Iterations 42
time step continuity errors : sum local = 1.13487e-07, global = -1.98523e-09, cumulative = 0.00159351
smoothSolver:  Solving for epsilon, Initial residual = 0.0148641, Final residual = 8.03174e-07, No Iterations 6
smoothSolver:  Solving for k, Initial residual = 0.0116262, Final residual = 6.98733e-07, No Iterations 7
ExecutionTime = 6.33 s  ClockTime = 6 s

Courant Number mean: 0.161929 max: 0.735579
Interface Courant Number mean: 0.0413926 max: 0.735579
deltaT = 0.00555556
Time = 1

smoothSolver:  Solving for alpha.water, Initial residual = 0.00712808, Final residual = 3.01906e-10, No Iterations 4
Phase-1 volume fraction = 0.130118  Min(alpha.water) = -5.57013e-08  Max(alpha.water) = 1.00002
MULES: Correcting alpha.water
MULES: Correcting alpha.water
Phase-1 volume fraction = 0.130118  Min(alpha.water) = -5.42032e-05  Max(alpha.water) = 1.00002
DICPCG:  Solving for p_rgh, Initial residual = 0.0101737, Final residual = 0.00031, No Iterations 2
time step continuity errors : sum local = 0.000483483, global = -6.65994e-07, cumulative = 0.00159285
DICPCG:  Solving for p_rgh, Initial residual = 0.000400081, Final residual = 1.54176e-05, No Iterations 11
time step continuity errors : sum local = 2.40559e-05, global = 1.38013e-06, cumulative = 0.00159423
DICPCG:  Solving for p_rgh, Initial residual = 0.000117591, Final residual = 9.2332e-08, No Iterations 32
time step continuity errors : sum local = 1.44542e-07, global = 3.10339e-08, cumulative = 0.00159426
smoothSolver:  Solving for epsilon, Initial residual = 0.0147343, Final residual = 8.24697e-07, No Iterations 6
smoothSolver:  Solving for k, Initial residual = 0.0115152, Final residual = 7.16732e-07, No Iterations 7
ExecutionTime = 6.36 s  ClockTime = 6 s

End

