/cm/shared/apps/OpenFOAM/OpenFOAM-7/bin/tools/RunFunctions: line 93: dsmcFoamMod: command not found
