--------------------------------------------------------------------------
WARNING: Linux kernel CMA support was requested via the
btl_vader_single_copy_mechanism MCA variable, but CMA support is
not available due to restrictive ptrace settings.

The vader shared memory BTL will fall back on another single-copy
mechanism if one is available. This may result in lower performance.

  Local host: DESKTOP-KF81SG4
--------------------------------------------------------------------------
/*---------------------------------------------------------------------------*\
  =========                 |
  \\      /  F ield         | OpenFOAM: The Open Source CFD Toolbox
   \\    /   O peration     | Website:  https://openfoam.org
    \\  /    A nd           | Version:  7
     \\/     M anipulation  |
\*---------------------------------------------------------------------------*/
Build  : 7-1ff648926f77
Exec   : dsmcFoamMod -parallel
Date   : Apr 17 2020
Time   : 23:06:44
Host   : "DESKTOP-KF81SG4"
PID    : 17627
I/O    : uncollated
Case   : /home/anthonygay1812/OpenFOAM/Working/oldDSMC/dsmcShockTube
nProcs : 4
Slaves : 
3
(
"DESKTOP-KF81SG4.17628"
"DESKTOP-KF81SG4.17629"
"DESKTOP-KF81SG4.17630"
)

Pstream initialized with:
    floatTransfer      : 0
    nProcsSimpleSum    : 0
    commsType          : nonBlocking
    polling iterations : 0
sigFpe : Enabling floating point exception trapping (FOAM_SIGFPE).
fileModificationChecking : Monitoring run-time modified files using timeStampMaster (fileModificationSkew 10)
allowSystemOperations : Allowing user-supplied system call operations

// * * * * * * * * * * * * * * * * * * * * * * * * * * * * * * * * * * * * * //
Create time

Create mesh for time = 0


Constructing dsmcCloud 
Selecting BinaryCollisionModel LarsenBorgnakkeVariableHardSphere
Selecting WallInteractionModel MaxwellianThermal
Selecting InflowBoundaryModel none

Constructing constant properties for
    N2

Starting time loop

Time = 3e-06

    Collisions                      = 3482230
    Acceptance rate                 = 0.964293

Cloud name: dsmc
    Number of dsmc particles        = 81998
    Number of molecules             = 1.63996e+24
    Mass in system                  = 0.0762581
    Average linear momentum         = (4.19211e-26 4.31891e-26 7.55131e-28)
   |Average linear momentum|        = 6.01934e-26
    Average linear kinetic energy   = 1.6645e-20
    Average internal energy         = 9.75998e-21
    Average total energy            = 2.6405e-20

ExecutionTime = 1.04 s  ClockTime = 2 s  Iterations: 1/1200  Projected time to finish: 20.7827 min
Time = 6e-06

    Collisions                      = 4384356
    Acceptance rate                 = 0.551308

Cloud name: dsmc
    Number of dsmc particles        = 81998
    Number of molecules             = 1.63996e+24
    Mass in system                  = 0.0762581
    Average linear momentum         = (4.93035e-26 4.31891e-26 7.55131e-28)
   |Average linear momentum|        = 6.55492e-26
    Average linear kinetic energy   = 1.58593e-20
    Average internal energy         = 1.05458e-20
    Average total energy            = 2.6405e-20

ExecutionTime = 2.48 s  ClockTime = 3 s  Iterations: 2/1200  Projected time to finish: 24.7587 min
Time = 9e-06

    Collisions                      = 4384992
    Acceptance rate                 = 0.540116

Cloud name: dsmc
    Number of dsmc particles        = 81998
    Number of molecules             = 1.63996e+24
    Mass in system                  = 0.0762581
    Average linear momentum         = (5.22837e-26 4.31891e-26 7.55131e-28)
   |Average linear momentum|        = 6.78192e-26
    Average linear kinetic energy   = 1.58537e-20
    Average internal energy         = 1.05513e-20
    Average total energy            = 2.6405e-20

ExecutionTime = 4 s  ClockTime = 5 s  Iterations: 3/1200  Projected time to finish: 26.6 min
Time = 1.2e-05

[DESKTOP-KF81SG4:17622] 3 more processes have sent help message help-btl-vader.txt / cma-permission-denied
[DESKTOP-KF81SG4:17622] Set MCA parameter "orte_base_help_aggregate" to 0 to see all help / error messages
    Collisions                      = 4386535
    Acceptance rate                 = 0.534489

Cloud name: dsmc
    Number of dsmc particles        = 81998
    Number of molecules             = 1.63996e+24
    Mass in system                  = 0.0762581
    Average linear momentum         = (5.45726e-26 4.31891e-26 7.55131e-28)
   |Average linear momentum|        = 6.95991e-26
    Average linear kinetic energy   = 1.58824e-20
    Average internal energy         = 1.05226e-20
    Average total energy            = 2.6405e-20

ExecutionTime = 5.47 s  ClockTime = 6 s  Iterations: 4/1200  Projected time to finish: 27.2588 min
Time = 1.5e-05

    Collisions                      = 4387672
    Acceptance rate                 = 0.530209

Cloud name: dsmc
    Number of dsmc particles        = 81998
    Number of molecules             = 1.63996e+24
    Mass in system                  = 0.0762581
    Average linear momentum         = (5.78909e-26 4.31891e-26 7.55131e-28)
   |Average linear momentum|        = 7.22304e-26
    Average linear kinetic energy   = 1.58495e-20
    Average internal energy         = 1.05555e-20
    Average total energy            = 2.6405e-20

ExecutionTime = 7.03 s  ClockTime = 8 s  Iterations: 5/1200  Projected time to finish: 28.0028 min
Time = 1.8e-05

    Collisions                      = 4388808
    Acceptance rate                 = 0.527168

Cloud name: dsmc
    Number of dsmc particles        = 81998
    Number of molecules             = 1.63996e+24
    Mass in system                  = 0.0762581
    Average linear momentum         = (6.64631e-26 4.31891e-26 7.55131e-28)
   |Average linear momentum|        = 7.92667e-26
    Average linear kinetic energy   = 1.58454e-20
    Average internal energy         = 1.05596e-20
    Average total energy            = 2.6405e-20

ExecutionTime = 8.59 s  ClockTime = 9 s  Iterations: 6/1200  Projected time to finish: 28.4902 min
Time = 2.1e-05

    Collisions                      = 4394992
    Acceptance rate                 = 0.525716

Cloud name: dsmc
    Number of dsmc particles        = 81998
    Number of molecules             = 1.63996e+24
    Mass in system                  = 0.0762581
    Average linear momentum         = (7.17013e-26 4.31891e-26 7.55131e-28)
   |Average linear momentum|        = 8.37075e-26
    Average linear kinetic energy   = 1.58774e-20
    Average internal energy         = 1.05276e-20
    Average total energy            = 2.6405e-20

ExecutionTime = 10.09 s  ClockTime = 11 s  Iterations: 7/1200  Projected time to finish: 28.6604 min
Time = 2.4e-05

    Collisions                      = 4395181
    Acceptance rate                 = 0.523983

Cloud name: dsmc
    Number of dsmc particles        = 81998
    Number of molecules             = 1.63996e+24
    Mass in system                  = 0.0762581
    Average linear momentum         = (8.89757e-26 4.31891e-26 7.55131e-28)
   |Average linear momentum|        = 9.89067e-26
    Average linear kinetic energy   = 1.59279e-20
    Average internal energy         = 1.04771e-20
    Average total energy            = 2.6405e-20

ExecutionTime = 11.48 s  ClockTime = 12 s  Iterations: 8/1200  Projected time to finish: 28.5087 min
Time = 2.7e-05

    Collisions                      = 4393562
    Acceptance rate                 = 0.522096

Cloud name: dsmc
    Number of dsmc particles        = 81998
    Number of molecules             = 1.63996e+24
    Mass in system                  = 0.0762581
    Average linear momentum         = (9.54618e-26 4.31891e-26 7.55131e-28)
   |Average linear momentum|        = 1.0478e-25
    Average linear kinetic energy   = 1.58551e-20
    Average internal energy         = 1.05499e-20
    Average total energy            = 2.6405e-20

ExecutionTime = 13.06 s  ClockTime = 14 s  Iterations: 9/1200  Projected time to finish: 28.8046 min
Time = 3e-05

    Collisions                      = 4395493
    Acceptance rate                 = 0.521438

Cloud name: dsmc
    Number of dsmc particles        = 81998
    Number of molecules             = 1.63996e+24
    Mass in system                  = 0.0762581
    Average linear momentum         = (1.03195e-25 4.31891e-26 7.55131e-28)
   |Average linear momentum|        = 1.11871e-25
    Average linear kinetic energy   = 1.59098e-20
    Average internal energy         = 1.04952e-20
    Average total energy            = 2.6405e-20

ExecutionTime = 14.59 s  ClockTime = 15 s  Iterations: 10/1200  Projected time to finish: 28.9368 min
Time = 3.3e-05

    Collisions                      = 4396412
    Acceptance rate                 = 0.520753

Cloud name: dsmc
    Number of dsmc particles        = 81998
    Number of molecules             = 1.63996e+24
    Mass in system                  = 0.0762581
    Average linear momentum         = (1.16478e-25 4.31891e-26 7.55131e-28)
   |Average linear momentum|        = 1.24229e-25
    Average linear kinetic energy   = 1.58367e-20
    Average internal energy         = 1.05684e-20
    Average total energy            = 2.6405e-20

ExecutionTime = 16.09 s  ClockTime = 17 s  Iterations: 11/1200  Projected time to finish: 28.9864 min
Time = 3.6e-05

    Collisions                      = 4395444
    Acceptance rate                 = 0.51976

Cloud name: dsmc
    Number of dsmc particles        = 81998
    Number of molecules             = 1.63996e+24
    Mass in system                  = 0.0762581
    Average linear momentum         = (1.21202e-25 4.31891e-26 7.55131e-28)
   |Average linear momentum|        = 1.28669e-25
    Average linear kinetic energy   = 1.58694e-20
    Average internal energy         = 1.05356e-20
    Average total energy            = 2.6405e-20

ExecutionTime = 17.62 s  ClockTime = 19 s  Iterations: 12/1200  Projected time to finish: 29.073 min
Time = 3.9e-05

    Collisions                      = 4394153
    Acceptance rate                 = 0.518616

Cloud name: dsmc
    Number of dsmc particles        = 81998
    Number of molecules             = 1.63996e+24
    Mass in system                  = 0.0762581
    Average linear momentum         = (1.29671e-25 4.31891e-26 7.55131e-28)
   |Average linear momentum|        = 1.36677e-25
    Average linear kinetic energy   = 1.58348e-20
    Average internal energy         = 1.05702e-20
    Average total energy            = 2.6405e-20

ExecutionTime = 19.29 s  ClockTime = 20 s  Iterations: 13/1200  Projected time to finish: 29.3554 min
Time = 4.2e-05

    Collisions                      = 4391402
    Acceptance rate                 = 0.517711

Cloud name: dsmc
    Number of dsmc particles        = 81998
    Number of molecules             = 1.63996e+24
    Mass in system                  = 0.0762581
    Average linear momentum         = (1.37382e-25 4.31891e-26 7.55131e-28)
   |Average linear momentum|        = 1.44012e-25
    Average linear kinetic energy   = 1.585e-20
    Average internal energy         = 1.05551e-20
    Average total energy            = 2.6405e-20

ExecutionTime = 20.87 s  ClockTime = 22 s  Iterations: 14/1200  Projected time to finish: 29.4665 min
Time = 4.5e-05

    Collisions                      = 4391400
    Acceptance rate                 = 0.516704

Cloud name: dsmc
    Number of dsmc particles        = 81998
    Number of molecules             = 1.63996e+24
    Mass in system                  = 0.0762581
    Average linear momentum         = (1.41747e-25 4.31891e-26 7.55131e-28)
   |Average linear momentum|        = 1.48183e-25
    Average linear kinetic energy   = 1.58262e-20
    Average internal energy         = 1.05788e-20
    Average total energy            = 2.6405e-20

ExecutionTime = 22.39 s  ClockTime = 23 s  Iterations: 15/1200  Projected time to finish: 29.4802 min
Time = 4.8e-05

    Collisions                      = 4391742
    Acceptance rate                 = 0.516151

Cloud name: dsmc
    Number of dsmc particles        = 81998
    Number of molecules             = 1.63996e+24
    Mass in system                  = 0.0762581
    Average linear momentum         = (1.46825e-25 4.31891e-26 7.55131e-28)
   |Average linear momentum|        = 1.53047e-25
    Average linear kinetic energy   = 1.58748e-20
    Average internal energy         = 1.05302e-20
    Average total energy            = 2.6405e-20

ExecutionTime = 23.97 s  ClockTime = 25 s  Iterations: 16/1200  Projected time to finish: 29.563 min
Time = 5.1e-05

    Collisions                      = 4391425
    Acceptance rate                 = 0.51559

Cloud name: dsmc
    Number of dsmc particles        = 81998
    Number of molecules             = 1.63996e+24
    Mass in system                  = 0.0762581
    Average linear momentum         = (1.56587e-25 4.31891e-26 7.55131e-28)
   |Average linear momentum|        = 1.62436e-25
    Average linear kinetic energy   = 1.58613e-20
    Average internal energy         = 1.05438e-20
    Average total energy            = 2.6405e-20

ExecutionTime = 25.62 s  ClockTime = 27 s  Iterations: 17/1200  Projected time to finish: 29.7142 min
Time = 5.4e-05

    Collisions                      = 4391575
    Acceptance rate                 = 0.514665

Cloud name: dsmc
    Number of dsmc particles        = 81998
    Number of molecules             = 1.63996e+24
    Mass in system                  = 0.0762581
    Average linear momentum         = (1.64379e-25 4.31891e-26 7.55131e-28)
   |Average linear momentum|        = 1.6996e-25
    Average linear kinetic energy   = 1.58119e-20
    Average internal energy         = 1.05931e-20
    Average total energy            = 2.6405e-20

ExecutionTime = 27.29 s  ClockTime = 28 s  Iterations: 18/1200  Projected time to finish: 29.8674 min
Time = 5.7e-05

    Collisions                      = 4388576
    Acceptance rate                 = 0.514292

Cloud name: dsmc
    Number of dsmc particles        = 81998
    Number of molecules             = 1.63996e+24
    Mass in system                  = 0.0762581
    Average linear momentum         = (1.72163e-25 4.31891e-26 7.55131e-28)
   |Average linear momentum|        = 1.775e-25
    Average linear kinetic energy   = 1.58149e-20
    Average internal energy         = 1.05902e-20
    Average total energy            = 2.6405e-20

ExecutionTime = 28.82 s  ClockTime = 30 s  Iterations: 19/1200  Projected time to finish: 29.8565 min
Time = 6e-05

    Collisions                      = 4387911
    Acceptance rate                 = 0.51392

Cloud name: dsmc
    Number of dsmc particles        = 81998
    Number of molecules             = 1.63996e+24
    Mass in system                  = 0.0762581
    Average linear momentum         = (1.75887e-25 4.31891e-26 7.55131e-28)
   |Average linear momentum|        = 1.81113e-25
    Average linear kinetic energy   = 1.58697e-20
    Average internal energy         = 1.05353e-20
    Average total energy            = 2.6405e-20

ExecutionTime = 30.43 s  ClockTime = 31 s  Iterations: 20/1200  Projected time to finish: 29.9228 min
Time = 6.3e-05

    Collisions                      = 4390143
    Acceptance rate                 = 0.51404

Cloud name: dsmc
    Number of dsmc particles        = 81998
    Number of molecules             = 1.63996e+24
    Mass in system                  = 0.0762581
    Average linear momentum         = (1.84016e-25 4.31891e-26 7.55131e-28)
   |Average linear momentum|        = 1.89018e-25
    Average linear kinetic energy   = 1.58178e-20
    Average internal energy         = 1.05872e-20
    Average total energy            = 2.6405e-20

ExecutionTime = 32.03 s  ClockTime = 33 s  Iterations: 21/1200  Projected time to finish: 29.9709 min
Time = 6.6e-05

    Collisions                      = 4387266
    Acceptance rate                 = 0.512882

Cloud name: dsmc
    Number of dsmc particles        = 81998
    Number of molecules             = 1.63996e+24
    Mass in system                  = 0.0762581
    Average linear momentum         = (1.91581e-25 4.31891e-26 7.55131e-28)
   |Average linear momentum|        = 1.96391e-25
    Average linear kinetic energy   = 1.5837e-20
    Average internal energy         = 1.0568e-20
    Average total energy            = 2.6405e-20

ExecutionTime = 33.72 s  ClockTime = 35 s  Iterations: 22/1200  Projected time to finish: 30.0925 min
Time = 6.9e-05

    Collisions                      = 4387099
    Acceptance rate                 = 0.512369

Cloud name: dsmc
    Number of dsmc particles        = 81998
    Number of molecules             = 1.63996e+24
    Mass in system                  = 0.0762581
    Average linear momentum         = (2.01228e-25 4.31891e-26 7.55131e-28)
   |Average linear momentum|        = 2.05812e-25
    Average linear kinetic energy   = 1.58063e-20
    Average internal energy         = 1.05988e-20
    Average total energy            = 2.6405e-20

ExecutionTime = 35.2 s  ClockTime = 36 s  Iterations: 23/1200  Projected time to finish: 30.022 min
Time = 7.2e-05

    Collisions                      = 4386262
    Acceptance rate                 = 0.51191

Cloud name: dsmc
    Number of dsmc particles        = 81998
    Number of molecules             = 1.63996e+24
    Mass in system                  = 0.0762581
    Average linear momentum         = (2.09135e-25 4.31891e-26 7.55131e-28)
   |Average linear momentum|        = 2.13549e-25
    Average linear kinetic energy   = 1.58438e-20
    Average internal energy         = 1.05612e-20
    Average total energy            = 2.6405e-20

ExecutionTime = 36.87 s  ClockTime = 38 s  Iterations: 24/1200  Projected time to finish: 30.1105 min
Time = 7.5e-05

    Collisions                      = 4386169
    Acceptance rate                 = 0.511558

Cloud name: dsmc
    Number of dsmc particles        = 81998
    Number of molecules             = 1.63996e+24
    Mass in system                  = 0.0762581
    Average linear momentum         = (2.21475e-25 4.31891e-26 7.55131e-28)
   |Average linear momentum|        = 2.25649e-25
    Average linear kinetic energy   = 1.58721e-20
    Average internal energy         = 1.05329e-20
    Average total energy            = 2.6405e-20

ExecutionTime = 38.36 s  ClockTime = 39 s  Iterations: 25/1200  Projected time to finish: 30.0487 min
Time = 7.8e-05

    Collisions                      = 4388865
    Acceptance rate                 = 0.511617

Cloud name: dsmc
    Number of dsmc particles        = 81998
    Number of molecules             = 1.63996e+24
    Mass in system                  = 0.0762581
    Average linear momentum         = (2.23643e-25 4.31891e-26 7.55131e-28)
   |Average linear momentum|        = 2.27776e-25
    Average linear kinetic energy   = 1.58445e-20
    Average internal energy         = 1.05606e-20
    Average total energy            = 2.6405e-20

ExecutionTime = 39.79 s  ClockTime = 41 s  Iterations: 26/1200  Projected time to finish: 29.9445 min
Time = 8.1e-05

    Collisions                      = 4384788
    Acceptance rate                 = 0.510671

Cloud name: dsmc
    Number of dsmc particles        = 81998
    Number of molecules             = 1.63996e+24
    Mass in system                  = 0.0762581
    Average linear momentum         = (2.27159e-25 4.31891e-26 7.55131e-28)
   |Average linear momentum|        = 2.3123e-25
    Average linear kinetic energy   = 1.58608e-20
    Average internal energy         = 1.05443e-20
    Average total energy            = 2.6405e-20

ExecutionTime = 41.32 s  ClockTime = 42 s  Iterations: 27/1200  Projected time to finish: 29.9187 min
Time = 8.4e-05

    Collisions                      = 4382922
    Acceptance rate                 = 0.510256

Cloud name: dsmc
    Number of dsmc particles        = 81998
    Number of molecules             = 1.63996e+24
    Mass in system                  = 0.0762581
    Average linear momentum         = (2.34816e-25 4.31891e-26 7.55131e-28)
   |Average linear momentum|        = 2.38756e-25
    Average linear kinetic energy   = 1.58846e-20
    Average internal energy         = 1.05204e-20
    Average total energy            = 2.6405e-20

ExecutionTime = 42.95 s  ClockTime = 44 s  Iterations: 28/1200  Projected time to finish: 29.9627 min
Time = 8.7e-05

    Collisions                      = 4381733
    Acceptance rate                 = 0.510026

Cloud name: dsmc
    Number of dsmc particles        = 81998
    Number of molecules             = 1.63996e+24
    Mass in system                  = 0.0762581
    Average linear momentum         = (2.40296e-25 4.31891e-26 7.55131e-28)
   |Average linear momentum|        = 2.44148e-25
    Average linear kinetic energy   = 1.58442e-20
    Average internal energy         = 1.05608e-20
    Average total energy            = 2.6405e-20

ExecutionTime = 44.57 s  ClockTime = 46 s  Iterations: 29/1200  Projected time to finish: 29.9951 min
Time = 9e-05

    Collisions                      = 4386641
    Acceptance rate                 = 0.510276

Cloud name: dsmc
    Number of dsmc particles        = 81998
    Number of molecules             = 1.63996e+24
    Mass in system                  = 0.0762581
    Average linear momentum         = (2.49119e-25 4.31891e-26 7.55131e-28)
   |Average linear momentum|        = 2.52836e-25
    Average linear kinetic energy   = 1.59103e-20
    Average internal energy         = 1.04947e-20
    Average total energy            = 2.6405e-20

ExecutionTime = 46.04 s  ClockTime = 47 s  Iterations: 30/1200  Projected time to finish: 29.926 min
Time = 9.3e-05

    Collisions                      = 4383732
    Acceptance rate                 = 0.509565

Cloud name: dsmc
    Number of dsmc particles        = 81998
    Number of molecules             = 1.63996e+24
    Mass in system                  = 0.0762581
    Average linear momentum         = (2.53533e-25 4.31891e-26 7.55131e-28)
   |Average linear momentum|        = 2.57187e-25
    Average linear kinetic energy   = 1.58028e-20
    Average internal energy         = 1.06022e-20
    Average total energy            = 2.6405e-20

ExecutionTime = 47.58 s  ClockTime = 49 s  Iterations: 31/1200  Projected time to finish: 29.9038 min
Time = 9.6e-05

    Collisions                      = 4382447
    Acceptance rate                 = 0.509151

Cloud name: dsmc
    Number of dsmc particles        = 81998
    Number of molecules             = 1.63996e+24
    Mass in system                  = 0.0762581
    Average linear momentum         = (2.61449e-25 4.31891e-26 7.55131e-28)
   |Average linear momentum|        = 2.64994e-25
    Average linear kinetic energy   = 1.58712e-20
    Average internal energy         = 1.05338e-20
    Average total energy            = 2.6405e-20

ExecutionTime = 49.1 s  ClockTime = 50 s  Iterations: 32/1200  Projected time to finish: 29.8692 min
Time = 9.9e-05

    Collisions                      = 4384556
    Acceptance rate                 = 0.508993

Cloud name: dsmc
    Number of dsmc particles        = 81998
    Number of molecules             = 1.63996e+24
    Mass in system                  = 0.0762581
    Average linear momentum         = (2.69942e-25 4.31891e-26 7.55131e-28)
   |Average linear momentum|        = 2.73377e-25
    Average linear kinetic energy   = 1.58406e-20
    Average internal energy         = 1.05645e-20
    Average total energy            = 2.6405e-20

ExecutionTime = 50.6 s  ClockTime = 52 s  Iterations: 33/1200  Projected time to finish: 29.8233 min
Time = 0.000102

    Collisions                      = 4382931
    Acceptance rate                 = 0.50869

Cloud name: dsmc
    Number of dsmc particles        = 81998
    Number of molecules             = 1.63996e+24
    Mass in system                  = 0.0762581
    Average linear momentum         = (2.81393e-25 4.31891e-26 7.55131e-28)
   |Average linear momentum|        = 2.84689e-25
    Average linear kinetic energy   = 1.58962e-20
    Average internal energy         = 1.05089e-20
    Average total energy            = 2.6405e-20

ExecutionTime = 52.3 s  ClockTime = 54 s  Iterations: 34/1200  Projected time to finish: 29.893 min
Time = 0.000105

    Collisions                      = 4381638
    Acceptance rate                 = 0.508272

Cloud name: dsmc
    Number of dsmc particles        = 81998
    Number of molecules             = 1.63996e+24
    Mass in system                  = 0.0762581
    Average linear momentum         = (2.92137e-25 4.31891e-26 7.55131e-28)
   |Average linear momentum|        = 2.95313e-25
    Average linear kinetic energy   = 1.58335e-20
    Average internal energy         = 1.05715e-20
    Average total energy            = 2.6405e-20

ExecutionTime = 54.12 s  ClockTime = 55 s  Iterations: 35/1200  Projected time to finish: 30.0237 min
Time = 0.000108

    Collisions                      = 4384285
    Acceptance rate                 = 0.508026

Cloud name: dsmc
    Number of dsmc particles        = 81998
    Number of molecules             = 1.63996e+24
    Mass in system                  = 0.0762581
    Average linear momentum         = (3.06494e-25 4.31891e-26 7.55131e-28)
   |Average linear momentum|        = 3.09523e-25
    Average linear kinetic energy   = 1.58687e-20
    Average internal energy         = 1.05363e-20
    Average total energy            = 2.6405e-20

ExecutionTime = 55.79 s  ClockTime = 57 s  Iterations: 36/1200  Projected time to finish: 30.0646 min
Time = 0.000111

    Collisions                      = 4381416
    Acceptance rate                 = 0.507592

Cloud name: dsmc
    Number of dsmc particles        = 81998
    Number of molecules             = 1.63996e+24
    Mass in system                  = 0.0762581
    Average linear momentum         = (3.13224e-25 4.31891e-26 7.55131e-28)
   |Average linear momentum|        = 3.16188e-25
    Average linear kinetic energy   = 1.58284e-20
    Average internal energy         = 1.05766e-20
    Average total energy            = 2.6405e-20

ExecutionTime = 57.5 s  ClockTime = 59 s  Iterations: 37/1200  Projected time to finish: 30.1227 min
Time = 0.000114

    Collisions                      = 4381347
    Acceptance rate                 = 0.507612

Cloud name: dsmc
    Number of dsmc particles        = 81998
    Number of molecules             = 1.63996e+24
    Mass in system                  = 0.0762581
    Average linear momentum         = (3.18443e-25 4.31891e-26 7.55131e-28)
   |Average linear momentum|        = 3.2136e-25
    Average linear kinetic energy   = 1.58219e-20
    Average internal energy         = 1.05832e-20
    Average total energy            = 2.6405e-20

ExecutionTime = 59.1 s  ClockTime = 61 s  Iterations: 38/1200  Projected time to finish: 30.1203 min
Time = 0.000117

    Collisions                      = 4380259
    Acceptance rate                 = 0.507512

Cloud name: dsmc
    Number of dsmc particles        = 81998
    Number of molecules             = 1.63996e+24
    Mass in system                  = 0.0762581
    Average linear momentum         = (3.22493e-25 4.31891e-26 7.55131e-28)
   |Average linear momentum|        = 3.25373e-25
    Average linear kinetic energy   = 1.58939e-20
    Average internal energy         = 1.05111e-20
    Average total energy            = 2.6405e-20

ExecutionTime = 60.64 s  ClockTime = 62 s  Iterations: 39/1200  Projected time to finish: 30.0868 min
Time = 0.00012

    Collisions                      = 4378498
    Acceptance rate                 = 0.506874

Cloud name: dsmc
    Number of dsmc particles        = 81998
    Number of molecules             = 1.63996e+24
    Mass in system                  = 0.0762581
    Average linear momentum         = (3.33954e-25 4.31891e-26 7.55131e-28)
   |Average linear momentum|        = 3.36736e-25
    Average linear kinetic energy   = 1.58917e-20
    Average internal energy         = 1.05134e-20
    Average total energy            = 2.6405e-20

ExecutionTime = 62.25 s  ClockTime = 64 s  Iterations: 40/1200  Projected time to finish: 30.0875 min
Time = 0.000123

    Collisions                      = 4377705
    Acceptance rate                 = 0.506777

Cloud name: dsmc
    Number of dsmc particles        = 81998
    Number of molecules             = 1.63996e+24
    Mass in system                  = 0.0762581
    Average linear momentum         = (3.4164e-25 4.31891e-26 7.55131e-28)
   |Average linear momentum|        = 3.4436e-25
    Average linear kinetic energy   = 1.59001e-20
    Average internal energy         = 1.0505e-20
    Average total energy            = 2.6405e-20

ExecutionTime = 64.09 s  ClockTime = 66 s  Iterations: 41/1200  Projected time to finish: 30.1952 min
Time = 0.000126

    Collisions                      = 4374980
    Acceptance rate                 = 0.506308

Cloud name: dsmc
    Number of dsmc particles        = 81998
    Number of molecules             = 1.63996e+24
    Mass in system                  = 0.0762581
    Average linear momentum         = (3.50244e-25 4.31891e-26 7.55131e-28)
   |Average linear momentum|        = 3.52897e-25
    Average linear kinetic energy   = 1.58597e-20
    Average internal energy         = 1.05453e-20
    Average total energy            = 2.6405e-20

ExecutionTime = 65.68 s  ClockTime = 67 s  Iterations: 42/1200  Projected time to finish: 30.1815 min
Time = 0.000129

    Collisions                      = 4376228
    Acceptance rate                 = 0.506393

Cloud name: dsmc
    Number of dsmc particles        = 81998
    Number of molecules             = 1.63996e+24
    Mass in system                  = 0.0762581
    Average linear momentum         = (3.56705e-25 4.31891e-26 7.55131e-28)
   |Average linear momentum|        = 3.59311e-25
    Average linear kinetic energy   = 1.58341e-20
    Average internal energy         = 1.05709e-20
    Average total energy            = 2.6405e-20

ExecutionTime = 67.2 s  ClockTime = 69 s  Iterations: 43/1200  Projected time to finish: 30.1358 min
Time = 0.000132

    Collisions                      = 4372809
    Acceptance rate                 = 0.505726

Cloud name: dsmc
    Number of dsmc particles        = 81998
    Number of molecules             = 1.63996e+24
    Mass in system                  = 0.0762581
    Average linear momentum         = (3.63202e-25 4.31891e-26 7.55131e-28)
   |Average linear momentum|        = 3.65761e-25
    Average linear kinetic energy   = 1.58182e-20
    Average internal energy         = 1.05868e-20
    Average total energy            = 2.6405e-20

ExecutionTime = 68.76 s  ClockTime = 70 s  Iterations: 44/1200  Projected time to finish: 30.1085 min
Time = 0.000135

    Collisions                      = 4375663
    Acceptance rate                 = 0.505797

Cloud name: dsmc
    Number of dsmc particles        = 81998
    Number of molecules             = 1.63996e+24
    Mass in system                  = 0.0762581
    Average linear momentum         = (3.69178e-25 4.31891e-26 7.55131e-28)
   |Average linear momentum|        = 3.71696e-25
    Average linear kinetic energy   = 1.58892e-20
    Average internal energy         = 1.05159e-20
    Average total energy            = 2.6405e-20

ExecutionTime = 70.39 s  ClockTime = 72 s  Iterations: 45/1200  Projected time to finish: 30.1113 min
Time = 0.000138

    Collisions                      = 4374284
    Acceptance rate                 = 0.505675

Cloud name: dsmc
    Number of dsmc particles        = 81998
    Number of molecules             = 1.63996e+24
    Mass in system                  = 0.0762581
    Average linear momentum         = (3.74903e-25 4.31891e-26 7.55131e-28)
   |Average linear momentum|        = 3.77383e-25
    Average linear kinetic energy   = 1.58729e-20
    Average internal energy         = 1.05321e-20
    Average total energy            = 2.6405e-20

ExecutionTime = 71.89 s  ClockTime = 74 s  Iterations: 46/1200  Projected time to finish: 30.0584 min
Time = 0.000141

    Collisions                      = 4371698
    Acceptance rate                 = 0.505428

Cloud name: dsmc
    Number of dsmc particles        = 81998
    Number of molecules             = 1.63996e+24
    Mass in system                  = 0.0762581
    Average linear momentum         = (3.84127e-25 4.31891e-26 7.55131e-28)
   |Average linear momentum|        = 3.86548e-25
    Average linear kinetic energy   = 1.58485e-20
    Average internal energy         = 1.05565e-20
    Average total energy            = 2.6405e-20

ExecutionTime = 73.45 s  ClockTime = 75 s  Iterations: 47/1200  Projected time to finish: 30.0312 min
Time = 0.000144

    Collisions                      = 4369093
    Acceptance rate                 = 0.505312

Cloud name: dsmc
    Number of dsmc particles        = 81998
    Number of molecules             = 1.63996e+24
    Mass in system                  = 0.0762581
    Average linear momentum         = (3.89466e-25 4.31891e-26 7.55131e-28)
   |Average linear momentum|        = 3.91854e-25
    Average linear kinetic energy   = 1.58828e-20
    Average internal energy         = 1.05222e-20
    Average total energy            = 2.6405e-20

ExecutionTime = 74.93 s  ClockTime = 77 s  Iterations: 48/1200  Projected time to finish: 29.972 min
Time = 0.000147

    Collisions                      = 4371261
    Acceptance rate                 = 0.505166

Cloud name: dsmc
    Number of dsmc particles        = 81998
    Number of molecules             = 1.63996e+24
    Mass in system                  = 0.0762581
    Average linear momentum         = (4.00567e-25 4.31891e-26 7.55131e-28)
   |Average linear momentum|        = 4.02889e-25
    Average linear kinetic energy   = 1.58258e-20
    Average internal energy         = 1.05792e-20
    Average total energy            = 2.6405e-20

ExecutionTime = 76.59 s  ClockTime = 78 s  Iterations: 49/1200  Projected time to finish: 29.9847 min
Time = 0.00015

    Collisions                      = 4370854
    Acceptance rate                 = 0.50513

Cloud name: dsmc
    Number of dsmc particles        = 81998
    Number of molecules             = 1.63996e+24
    Mass in system                  = 0.0762581
    Average linear momentum         = (4.13043e-25 4.31891e-26 7.55131e-28)
   |Average linear momentum|        = 4.15295e-25
    Average linear kinetic energy   = 1.58882e-20
    Average internal energy         = 1.05168e-20
    Average total energy            = 2.6405e-20

ExecutionTime = 78.25 s  ClockTime = 80 s  Iterations: 50/1200  Projected time to finish: 29.9958 min
Time = 0.000153

    Collisions                      = 4370055
    Acceptance rate                 = 0.504762

Cloud name: dsmc
    Number of dsmc particles        = 81998
    Number of molecules             = 1.63996e+24
    Mass in system                  = 0.0762581
    Average linear momentum         = (4.17761e-25 4.31891e-26 7.55131e-28)
   |Average linear momentum|        = 4.19988e-25
    Average linear kinetic energy   = 1.5816e-20
    Average internal energy         = 1.0589e-20
    Average total energy            = 2.6405e-20

ExecutionTime = 79.78 s  ClockTime = 82 s  Iterations: 51/1200  Projected time to finish: 29.9566 min
Time = 0.000156

    Collisions                      = 4371107
    Acceptance rate                 = 0.504691

Cloud name: dsmc
    Number of dsmc particles        = 81998
    Number of molecules             = 1.63996e+24
    Mass in system                  = 0.0762581
    Average linear momentum         = (4.20621e-25 4.31891e-26 7.55131e-28)
   |Average linear momentum|        = 4.22833e-25
    Average linear kinetic energy   = 1.59311e-20
    Average internal energy         = 1.04739e-20
    Average total energy            = 2.6405e-20

ExecutionTime = 81.32 s  ClockTime = 83 s  Iterations: 52/1200  Projected time to finish: 29.9216 min
Time = 0.000159

    Collisions                      = 4370125
    Acceptance rate                 = 0.504573

Cloud name: dsmc
    Number of dsmc particles        = 81998
    Number of molecules             = 1.63996e+24
    Mass in system                  = 0.0762581
    Average linear momentum         = (4.25412e-25 4.31891e-26 7.55131e-28)
   |Average linear momentum|        = 4.27599e-25
    Average linear kinetic energy   = 1.58394e-20
    Average internal energy         = 1.05657e-20
    Average total energy            = 2.6405e-20

ExecutionTime = 82.83 s  ClockTime = 85 s  Iterations: 53/1200  Projected time to finish: 29.8761 min
Time = 0.000162

    Collisions                      = 4370752
    Acceptance rate                 = 0.504085

Cloud name: dsmc
    Number of dsmc particles        = 81998
    Number of molecules             = 1.63996e+24
    Mass in system                  = 0.0762581
    Average linear momentum         = (4.31178e-25 4.31891e-26 7.55131e-28)
   |Average linear momentum|        = 4.33336e-25
    Average linear kinetic energy   = 1.58758e-20
    Average internal energy         = 1.05293e-20
    Average total energy            = 2.6405e-20

ExecutionTime = 84.35 s  ClockTime = 86 s  Iterations: 54/1200  Projected time to finish: 29.8349 min
Time = 0.000165

    Collisions                      = 4370011
    Acceptance rate                 = 0.503671

Cloud name: dsmc
    Number of dsmc particles        = 81998
    Number of molecules             = 1.63996e+24
    Mass in system                  = 0.0762581
    Average linear momentum         = (4.35082e-25 4.31891e-26 7.55131e-28)
   |Average linear momentum|        = 4.37221e-25
    Average linear kinetic energy   = 1.58529e-20
    Average internal energy         = 1.05521e-20
    Average total energy            = 2.6405e-20

ExecutionTime = 85.86 s  ClockTime = 88 s  Iterations: 55/1200  Projected time to finish: 29.7908 min
Time = 0.000168

    Collisions                      = 4369731
    Acceptance rate                 = 0.50347

Cloud name: dsmc
    Number of dsmc particles        = 81998
    Number of molecules             = 1.63996e+24
    Mass in system                  = 0.0762581
    Average linear momentum         = (4.45357e-25 4.31891e-26 7.55131e-28)
   |Average linear momentum|        = 4.47447e-25
    Average linear kinetic energy   = 1.5863e-20
    Average internal energy         = 1.05421e-20
    Average total energy            = 2.6405e-20

ExecutionTime = 87.43 s  ClockTime = 89 s  Iterations: 56/1200  Projected time to finish: 29.7678 min
Time = 0.000171

    Collisions                      = 4371539
    Acceptance rate                 = 0.503474

Cloud name: dsmc
    Number of dsmc particles        = 81998
    Number of molecules             = 1.63996e+24
    Mass in system                  = 0.0762581
    Average linear momentum         = (4.5644e-25 4.31891e-26 7.55131e-28)
   |Average linear momentum|        = 4.5848e-25
    Average linear kinetic energy   = 1.59031e-20
    Average internal energy         = 1.05019e-20
    Average total energy            = 2.6405e-20

ExecutionTime = 89.08 s  ClockTime = 91 s  Iterations: 57/1200  Projected time to finish: 29.7715 min
Time = 0.000174

    Collisions                      = 4369774
    Acceptance rate                 = 0.503127

Cloud name: dsmc
    Number of dsmc particles        = 81998
    Number of molecules             = 1.63996e+24
    Mass in system                  = 0.0762581
    Average linear momentum         = (4.62162e-25 4.31891e-26 7.55131e-28)
   |Average linear momentum|        = 4.64176e-25
    Average linear kinetic energy   = 1.59092e-20
    Average internal energy         = 1.04958e-20
    Average total energy            = 2.6405e-20

ExecutionTime = 90.63 s  ClockTime = 93 s  Iterations: 58/1200  Projected time to finish: 29.7412 min
Time = 0.000177

    Collisions                      = 4367734
    Acceptance rate                 = 0.502839

Cloud name: dsmc
    Number of dsmc particles        = 81998
    Number of molecules             = 1.63996e+24
    Mass in system                  = 0.0762581
    Average linear momentum         = (4.75116e-25 4.31891e-26 7.55131e-28)
   |Average linear momentum|        = 4.77076e-25
    Average linear kinetic energy   = 1.58925e-20
    Average internal energy         = 1.05125e-20
    Average total energy            = 2.6405e-20

ExecutionTime = 92.22 s  ClockTime = 94 s  Iterations: 59/1200  Projected time to finish: 29.724 min
Time = 0.00018

    Collisions                      = 4368461
    Acceptance rate                 = 0.50299

Cloud name: dsmc
    Number of dsmc particles        = 81998
    Number of molecules             = 1.63996e+24
    Mass in system                  = 0.0762581
    Average linear momentum         = (4.80587e-25 4.31891e-26 7.55131e-28)
   |Average linear momentum|        = 4.82525e-25
    Average linear kinetic energy   = 1.58798e-20
    Average internal energy         = 1.05252e-20
    Average total energy            = 2.6405e-20

ExecutionTime = 93.76 s  ClockTime = 96 s  Iterations: 60/1200  Projected time to finish: 29.6907 min
Time = 0.000183

    Collisions                      = 4370368
    Acceptance rate                 = 0.503203

Cloud name: dsmc
    Number of dsmc particles        = 81998
    Number of molecules             = 1.63996e+24
    Mass in system                  = 0.0762581
    Average linear momentum         = (4.8697e-25 4.31891e-26 7.55131e-28)
   |Average linear momentum|        = 4.88882e-25
    Average linear kinetic energy   = 1.58581e-20
    Average internal energy         = 1.0547e-20
    Average total energy            = 2.6405e-20

ExecutionTime = 95.33 s  ClockTime = 97 s  Iterations: 61/1200  Projected time to finish: 29.6669 min
Time = 0.000186

    Collisions                      = 4367894
    Acceptance rate                 = 0.502788

Cloud name: dsmc
    Number of dsmc particles        = 81998
    Number of molecules             = 1.63996e+24
    Mass in system                  = 0.0762581
    Average linear momentum         = (4.90228e-25 4.31891e-26 7.55131e-28)
   |Average linear momentum|        = 4.92127e-25
    Average linear kinetic energy   = 1.59077e-20
    Average internal energy         = 1.04973e-20
    Average total energy            = 2.6405e-20

ExecutionTime = 96.83 s  ClockTime = 99 s  Iterations: 62/1200  Projected time to finish: 29.6217 min
Time = 0.000189

    Collisions                      = 4369610
    Acceptance rate                 = 0.502592

Cloud name: dsmc
    Number of dsmc particles        = 81998
    Number of molecules             = 1.63996e+24
    Mass in system                  = 0.0762581
    Average linear momentum         = (4.98658e-25 4.31891e-26 7.55131e-28)
   |Average linear momentum|        = 5.00525e-25
    Average linear kinetic energy   = 1.5867e-20
    Average internal energy         = 1.05381e-20
    Average total energy            = 2.6405e-20

ExecutionTime = 98.46 s  ClockTime = 100 s  Iterations: 63/1200  Projected time to finish: 29.6161 min
Time = 0.000192

    Collisions                      = 4367364
    Acceptance rate                 = 0.502478

Cloud name: dsmc
    Number of dsmc particles        = 81998
    Number of molecules             = 1.63996e+24
    Mass in system                  = 0.0762581
    Average linear momentum         = (5.06083e-25 4.31891e-26 7.55131e-28)
   |Average linear momentum|        = 5.07924e-25
    Average linear kinetic energy   = 1.58263e-20
    Average internal energy         = 1.05787e-20
    Average total energy            = 2.6405e-20

ExecutionTime = 100.01 s  ClockTime = 102 s  Iterations: 64/1200  Projected time to finish: 29.5863 min
Time = 0.000195

    Collisions                      = 4368330
    Acceptance rate                 = 0.502465

Cloud name: dsmc
    Number of dsmc particles        = 81998
    Number of molecules             = 1.63996e+24
    Mass in system                  = 0.0762581
    Average linear momentum         = (5.13782e-25 4.31891e-26 7.55131e-28)
   |Average linear momentum|        = 5.15595e-25
    Average linear kinetic energy   = 1.58782e-20
    Average internal energy         = 1.05268e-20
    Average total energy            = 2.6405e-20

ExecutionTime = 101.58 s  ClockTime = 104 s  Iterations: 65/1200  Projected time to finish: 29.5624 min
Time = 0.000198

    Collisions                      = 4366094
    Acceptance rate                 = 0.502141

Cloud name: dsmc
    Number of dsmc particles        = 81998
    Number of molecules             = 1.63996e+24
    Mass in system                  = 0.0762581
    Average linear momentum         = (5.18226e-25 4.31891e-26 7.55131e-28)
   |Average linear momentum|        = 5.20023e-25
    Average linear kinetic energy   = 1.59116e-20
    Average internal energy         = 1.04934e-20
    Average total energy            = 2.6405e-20

ExecutionTime = 103.07 s  ClockTime = 105 s  Iterations: 66/1200  Projected time to finish: 29.5155 min
Time = 0.000201

    Collisions                      = 4361917
    Acceptance rate                 = 0.501579

Cloud name: dsmc
    Number of dsmc particles        = 81998
    Number of molecules             = 1.63996e+24
    Mass in system                  = 0.0762581
    Average linear momentum         = (5.25539e-25 4.31891e-26 7.55131e-28)
   |Average linear momentum|        = 5.27311e-25
    Average linear kinetic energy   = 1.58664e-20
    Average internal energy         = 1.05386e-20
    Average total energy            = 2.6405e-20

ExecutionTime = 104.58 s  ClockTime = 107 s  Iterations: 67/1200  Projected time to finish: 29.4749 min
Time = 0.000204

    Collisions                      = 4365100
    Acceptance rate                 = 0.501803

Cloud name: dsmc
    Number of dsmc particles        = 81998
    Number of molecules             = 1.63996e+24
    Mass in system                  = 0.0762581
    Average linear momentum         = (5.41661e-25 4.31891e-26 7.55131e-28)
   |Average linear momentum|        = 5.4338e-25
    Average linear kinetic energy   = 1.58545e-20
    Average internal energy         = 1.05505e-20
    Average total energy            = 2.6405e-20

ExecutionTime = 106.18 s  ClockTime = 108 s  Iterations: 68/1200  Projected time to finish: 29.4597 min
Time = 0.000207

    Collisions                      = 4365100
    Acceptance rate                 = 0.501728

Cloud name: dsmc
    Number of dsmc particles        = 81998
    Number of molecules             = 1.63996e+24
    Mass in system                  = 0.0762581
    Average linear momentum         = (5.46553e-25 4.31891e-26 7.55131e-28)
   |Average linear momentum|        = 5.48257e-25
    Average linear kinetic energy   = 1.5892e-20
    Average internal energy         = 1.05131e-20
    Average total energy            = 2.6405e-20

ExecutionTime = 107.72 s  ClockTime = 110 s  Iterations: 69/1200  Projected time to finish: 29.4279 min
Time = 0.00021

    Collisions                      = 4363479
    Acceptance rate                 = 0.501484

Cloud name: dsmc
    Number of dsmc particles        = 81998
    Number of molecules             = 1.63996e+24
    Mass in system                  = 0.0762581
    Average linear momentum         = (5.56913e-25 4.31891e-26 7.55131e-28)
   |Average linear momentum|        = 5.58586e-25
    Average linear kinetic energy   = 1.58855e-20
    Average internal energy         = 1.05195e-20
    Average total energy            = 2.6405e-20

ExecutionTime = 109.3 s  ClockTime = 111 s  Iterations: 70/1200  Projected time to finish: 29.4069 min
Time = 0.000213

    Collisions                      = 4363294
    Acceptance rate                 = 0.501461

Cloud name: dsmc
    Number of dsmc particles        = 81998
    Number of molecules             = 1.63996e+24
    Mass in system                  = 0.0762581
    Average linear momentum         = (5.66288e-25 4.31891e-26 7.55131e-28)
   |Average linear momentum|        = 5.67933e-25
    Average linear kinetic energy   = 1.5836e-20
    Average internal energy         = 1.0569e-20
    Average total energy            = 2.6405e-20

ExecutionTime = 110.9 s  ClockTime = 113 s  Iterations: 71/1200  Projected time to finish: 29.3911 min
Time = 0.000216

    Collisions                      = 4358902
    Acceptance rate                 = 0.50104

Cloud name: dsmc
    Number of dsmc particles        = 81998
    Number of molecules             = 1.63996e+24
    Mass in system                  = 0.0762581
    Average linear momentum         = (5.73846e-25 4.31891e-26 7.55131e-28)
   |Average linear momentum|        = 5.75469e-25
    Average linear kinetic energy   = 1.58684e-20
    Average internal energy         = 1.05366e-20
    Average total energy            = 2.6405e-20

ExecutionTime = 112.44 s  ClockTime = 115 s  Iterations: 72/1200  Projected time to finish: 29.3593 min
Time = 0.000219

    Collisions                      = 4356757
    Acceptance rate                 = 0.500939

Cloud name: dsmc
    Number of dsmc particles        = 81998
    Number of molecules             = 1.63996e+24
    Mass in system                  = 0.0762581
    Average linear momentum         = (5.77063e-25 4.31891e-26 7.55131e-28)
   |Average linear momentum|        = 5.78677e-25
    Average linear kinetic energy   = 1.5884e-20
    Average internal energy         = 1.0521e-20
    Average total energy            = 2.6405e-20

ExecutionTime = 113.94 s  ClockTime = 116 s  Iterations: 73/1200  Projected time to finish: 29.3174 min
Time = 0.000222

    Collisions                      = 4357250
    Acceptance rate                 = 0.500971

Cloud name: dsmc
    Number of dsmc particles        = 81998
    Number of molecules             = 1.63996e+24
    Mass in system                  = 0.0762581
    Average linear momentum         = (5.80353e-25 4.31891e-26 7.55131e-28)
   |Average linear momentum|        = 5.81958e-25
    Average linear kinetic energy   = 1.58737e-20
    Average internal energy         = 1.05313e-20
    Average total energy            = 2.6405e-20

ExecutionTime = 115.52 s  ClockTime = 118 s  Iterations: 74/1200  Projected time to finish: 29.2963 min
Time = 0.000225

    Collisions                      = 4357134
    Acceptance rate                 = 0.500847

Cloud name: dsmc
    Number of dsmc particles        = 81998
    Number of molecules             = 1.63996e+24
    Mass in system                  = 0.0762581
    Average linear momentum         = (5.89096e-25 4.31891e-26 7.55131e-28)
   |Average linear momentum|        = 5.90678e-25
    Average linear kinetic energy   = 1.5865e-20
    Average internal energy         = 1.05401e-20
    Average total energy            = 2.6405e-20

ExecutionTime = 117.05 s  ClockTime = 119 s  Iterations: 75/1200  Projected time to finish: 29.2625 min
Time = 0.000228

    Collisions                      = 4358120
    Acceptance rate                 = 0.500675

Cloud name: dsmc
    Number of dsmc particles        = 81998
    Number of molecules             = 1.63996e+24
    Mass in system                  = 0.0762581
    Average linear momentum         = (5.94277e-25 4.31891e-26 7.55131e-28)
   |Average linear momentum|        = 5.95845e-25
    Average linear kinetic energy   = 1.58699e-20
    Average internal energy         = 1.05351e-20
    Average total energy            = 2.6405e-20

ExecutionTime = 118.65 s  ClockTime = 121 s  Iterations: 76/1200  Projected time to finish: 29.2462 min
Time = 0.000231

    Collisions                      = 4358862
    Acceptance rate                 = 0.500803

Cloud name: dsmc
    Number of dsmc particles        = 81998
    Number of molecules             = 1.63996e+24
    Mass in system                  = 0.0762581
    Average linear momentum         = (6.04997e-25 4.31891e-26 7.55131e-28)
   |Average linear momentum|        = 6.06537e-25
    Average linear kinetic energy   = 1.58612e-20
    Average internal energy         = 1.05438e-20
    Average total energy            = 2.6405e-20

ExecutionTime = 120.32 s  ClockTime = 122 s  Iterations: 77/1200  Projected time to finish: 29.2466 min
Time = 0.000234

    Collisions                      = 4359512
    Acceptance rate                 = 0.500715

Cloud name: dsmc
    Number of dsmc particles        = 81998
    Number of molecules             = 1.63996e+24
    Mass in system                  = 0.0762581
    Average linear momentum         = (6.10564e-25 4.31891e-26 7.55131e-28)
   |Average linear momentum|        = 6.1209e-25
    Average linear kinetic energy   = 1.5876e-20
    Average internal energy         = 1.0529e-20
    Average total energy            = 2.6405e-20

ExecutionTime = 121.85 s  ClockTime = 124 s  Iterations: 78/1200  Projected time to finish: 29.2128 min
Time = 0.000237

    Collisions                      = 4355891
    Acceptance rate                 = 0.500259

Cloud name: dsmc
    Number of dsmc particles        = 81998
    Number of molecules             = 1.63996e+24
    Mass in system                  = 0.0762581
    Average linear momentum         = (6.2473e-25 4.31891e-26 7.55131e-28)
   |Average linear momentum|        = 6.26222e-25
    Average linear kinetic energy   = 1.58768e-20
    Average internal energy         = 1.05282e-20
    Average total energy            = 2.6405e-20

ExecutionTime = 123.4 s  ClockTime = 126 s  Iterations: 79/1200  Projected time to finish: 29.1838 min
Time = 0.00024

    Collisions                      = 4357835
    Acceptance rate                 = 0.500226

Cloud name: dsmc
    Number of dsmc particles        = 81998
    Number of molecules             = 1.63996e+24
    Mass in system                  = 0.0762581
    Average linear momentum         = (6.32013e-25 4.31891e-26 7.55131e-28)
   |Average linear momentum|        = 6.33487e-25
    Average linear kinetic energy   = 1.5883e-20
    Average internal energy         = 1.0522e-20
    Average total energy            = 2.6405e-20

ExecutionTime = 124.9 s  ClockTime = 127 s  Iterations: 80/1200  Projected time to finish: 29.1433 min
Time = 0.000243

    Collisions                      = 4352607
    Acceptance rate                 = 0.499596

Cloud name: dsmc
    Number of dsmc particles        = 81998
    Number of molecules             = 1.63996e+24
    Mass in system                  = 0.0762581
    Average linear momentum         = (6.36417e-25 4.31891e-26 7.55131e-28)
   |Average linear momentum|        = 6.37881e-25
    Average linear kinetic energy   = 1.5867e-20
    Average internal energy         = 1.0538e-20
    Average total energy            = 2.6405e-20

ExecutionTime = 126.51 s  ClockTime = 129 s  Iterations: 81/1200  Projected time to finish: 29.1285 min
Time = 0.000246

    Collisions                      = 4356094
    Acceptance rate                 = 0.499985

Cloud name: dsmc
    Number of dsmc particles        = 81998
    Number of molecules             = 1.63996e+24
    Mass in system                  = 0.0762581
    Average linear momentum         = (6.49116e-25 4.31891e-26 7.55131e-28)
   |Average linear momentum|        = 6.50552e-25
    Average linear kinetic energy   = 1.58509e-20
    Average internal energy         = 1.05542e-20
    Average total energy            = 2.6405e-20

ExecutionTime = 128.05 s  ClockTime = 130 s  Iterations: 82/1200  Projected time to finish: 29.0975 min
Time = 0.000249

    Collisions                      = 4358818
    Acceptance rate                 = 0.500211

Cloud name: dsmc
    Number of dsmc particles        = 81998
    Number of molecules             = 1.63996e+24
    Mass in system                  = 0.0762581
    Average linear momentum         = (6.57939e-25 4.31891e-26 7.55131e-28)
   |Average linear momentum|        = 6.59356e-25
    Average linear kinetic energy   = 1.58702e-20
    Average internal energy         = 1.05349e-20
    Average total energy            = 2.6405e-20

ExecutionTime = 129.71 s  ClockTime = 132 s  Iterations: 83/1200  Projected time to finish: 29.0936 min
Time = 0.000252

    Collisions                      = 4354159
    Acceptance rate                 = 0.499859

Cloud name: dsmc
    Number of dsmc particles        = 81998
    Number of molecules             = 1.63996e+24
    Mass in system                  = 0.0762581
    Average linear momentum         = (6.66096e-25 4.31891e-26 7.55131e-28)
   |Average linear momentum|        = 6.67496e-25
    Average linear kinetic energy   = 1.58689e-20
    Average internal energy         = 1.05361e-20
    Average total energy            = 2.6405e-20

ExecutionTime = 131.27 s  ClockTime = 134 s  Iterations: 84/1200  Projected time to finish: 29.0669 min
Time = 0.000255

    Collisions                      = 4354045
    Acceptance rate                 = 0.499746

Cloud name: dsmc
    Number of dsmc particles        = 81998
    Number of molecules             = 1.63996e+24
    Mass in system                  = 0.0762581
    Average linear momentum         = (6.72376e-25 4.31891e-26 7.55131e-28)
   |Average linear momentum|        = 6.73762e-25
    Average linear kinetic energy   = 1.59235e-20
    Average internal energy         = 1.04815e-20
    Average total energy            = 2.6405e-20

ExecutionTime = 132.97 s  ClockTime = 135 s  Iterations: 85/1200  Projected time to finish: 29.0709 min
Time = 0.000258

    Collisions                      = 4356032
    Acceptance rate                 = 0.499912

Cloud name: dsmc
    Number of dsmc particles        = 81998
    Number of molecules             = 1.63996e+24
    Mass in system                  = 0.0762581
    Average linear momentum         = (6.78152e-25 4.31891e-26 7.55131e-28)
   |Average linear momentum|        = 6.79526e-25
    Average linear kinetic energy   = 1.59072e-20
    Average internal energy         = 1.04978e-20
    Average total energy            = 2.6405e-20

ExecutionTime = 134.54 s  ClockTime = 137 s  Iterations: 86/1200  Projected time to finish: 29.046 min
Time = 0.000261

    Collisions                      = 4355342
    Acceptance rate                 = 0.499848

Cloud name: dsmc
    Number of dsmc particles        = 81998
    Number of molecules             = 1.63996e+24
    Mass in system                  = 0.0762581
    Average linear momentum         = (6.84101e-25 4.31891e-26 7.55131e-28)
   |Average linear momentum|        = 6.85464e-25
    Average linear kinetic energy   = 1.58442e-20
    Average internal energy         = 1.05609e-20
    Average total energy            = 2.6405e-20

ExecutionTime = 136.07 s  ClockTime = 138 s  Iterations: 87/1200  Projected time to finish: 29.0126 min
Time = 0.000264

    Collisions                      = 4355963
    Acceptance rate                 = 0.499966

Cloud name: dsmc
    Number of dsmc particles        = 81998
    Number of molecules             = 1.63996e+24
    Mass in system                  = 0.0762581
    Average linear momentum         = (6.92195e-25 4.31891e-26 7.55131e-28)
   |Average linear momentum|        = 6.93542e-25
    Average linear kinetic energy   = 1.58835e-20
    Average internal energy         = 1.05215e-20
    Average total energy            = 2.6405e-20

ExecutionTime = 137.73 s  ClockTime = 140 s  Iterations: 88/1200  Projected time to finish: 29.0068 min
Time = 0.000267

    Collisions                      = 4352818
    Acceptance rate                 = 0.499489

Cloud name: dsmc
    Number of dsmc particles        = 81998
    Number of molecules             = 1.63996e+24
    Mass in system                  = 0.0762581
    Average linear momentum         = (7.00406e-25 4.31891e-26 7.55131e-28)
   |Average linear momentum|        = 7.01737e-25
    Average linear kinetic energy   = 1.58569e-20
    Average internal energy         = 1.05481e-20
    Average total energy            = 2.6405e-20

ExecutionTime = 139.34 s  ClockTime = 142 s  Iterations: 89/1200  Projected time to finish: 28.99 min
Time = 0.00027

    Collisions                      = 4351927
    Acceptance rate                 = 0.499289

Cloud name: dsmc
    Number of dsmc particles        = 81998
    Number of molecules             = 1.63996e+24
    Mass in system                  = 0.0762581
    Average linear momentum         = (7.02117e-25 4.31891e-26 7.55131e-28)
   |Average linear momentum|        = 7.03444e-25
    Average linear kinetic energy   = 1.59294e-20
    Average internal energy         = 1.04757e-20
    Average total energy            = 2.6405e-20

ExecutionTime = 140.9 s  ClockTime = 143 s  Iterations: 90/1200  Projected time to finish: 28.9628 min
Time = 0.000273

    Collisions                      = 4353289
    Acceptance rate                 = 0.499475

Cloud name: dsmc
    Number of dsmc particles        = 81998
    Number of molecules             = 1.63996e+24
    Mass in system                  = 0.0762581
    Average linear momentum         = (7.08309e-25 4.31891e-26 7.55131e-28)
   |Average linear momentum|        = 7.09625e-25
    Average linear kinetic energy   = 1.58866e-20
    Average internal energy         = 1.05184e-20
    Average total energy            = 2.6405e-20

ExecutionTime = 142.6 s  ClockTime = 145 s  Iterations: 91/1200  Projected time to finish: 28.964 min
Time = 0.000276

    Collisions                      = 4352899
    Acceptance rate                 = 0.49956

Cloud name: dsmc
    Number of dsmc particles        = 81998
    Number of molecules             = 1.63996e+24
    Mass in system                  = 0.0762581
    Average linear momentum         = (7.15171e-25 4.31891e-26 7.55131e-28)
   |Average linear momentum|        = 7.16474e-25
    Average linear kinetic energy   = 1.58362e-20
    Average internal energy         = 1.05688e-20
    Average total energy            = 2.6405e-20

ExecutionTime = 144.18 s  ClockTime = 147 s  Iterations: 92/1200  Projected time to finish: 28.9405 min
Time = 0.000279

    Collisions                      = 4348385
    Acceptance rate                 = 0.499024

Cloud name: dsmc
    Number of dsmc particles        = 81998
    Number of molecules             = 1.63996e+24
    Mass in system                  = 0.0762581
    Average linear momentum         = (7.242e-25 4.31891e-26 7.55131e-28)
   |Average linear momentum|        = 7.25488e-25
    Average linear kinetic energy   = 1.58933e-20
    Average internal energy         = 1.05118e-20
    Average total energy            = 2.6405e-20

ExecutionTime = 145.7 s  ClockTime = 148 s  Iterations: 93/1200  Projected time to finish: 28.905 min
Time = 0.000282

    Collisions                      = 4351571
    Acceptance rate                 = 0.499291

Cloud name: dsmc
    Number of dsmc particles        = 81998
    Number of molecules             = 1.63996e+24
    Mass in system                  = 0.0762581
    Average linear momentum         = (7.35417e-25 4.31891e-26 7.55131e-28)
   |Average linear momentum|        = 7.36684e-25
    Average linear kinetic energy   = 1.58827e-20
    Average internal energy         = 1.05224e-20
    Average total energy            = 2.6405e-20

ExecutionTime = 147.2 s  ClockTime = 150 s  Iterations: 94/1200  Projected time to finish: 28.8658 min
Time = 0.000285

    Collisions                      = 4352270
    Acceptance rate                 = 0.499361

Cloud name: dsmc
    Number of dsmc particles        = 81998
    Number of molecules             = 1.63996e+24
    Mass in system                  = 0.0762581
    Average linear momentum         = (7.46661e-25 4.31891e-26 7.55131e-28)
   |Average linear momentum|        = 7.47909e-25
    Average linear kinetic energy   = 1.59027e-20
    Average internal energy         = 1.05023e-20
    Average total energy            = 2.6405e-20

ExecutionTime = 148.76 s  ClockTime = 151 s  Iterations: 95/1200  Projected time to finish: 28.8386 min
Time = 0.000288

    Collisions                      = 4350772
    Acceptance rate                 = 0.499057

Cloud name: dsmc
    Number of dsmc particles        = 81998
    Number of molecules             = 1.63996e+24
    Mass in system                  = 0.0762581
    Average linear momentum         = (7.50888e-25 4.31891e-26 7.55131e-28)
   |Average linear momentum|        = 7.52129e-25
    Average linear kinetic energy   = 1.59443e-20
    Average internal energy         = 1.04607e-20
    Average total energy            = 2.6405e-20

ExecutionTime = 150.39 s  ClockTime = 153 s  Iterations: 96/1200  Projected time to finish: 28.8247 min
Time = 0.000291

    Collisions                      = 4351437
    Acceptance rate                 = 0.499122

Cloud name: dsmc
    Number of dsmc particles        = 81998
    Number of molecules             = 1.63996e+24
    Mass in system                  = 0.0762581
    Average linear momentum         = (7.53769e-25 4.31891e-26 7.55131e-28)
   |Average linear momentum|        = 7.55006e-25
    Average linear kinetic energy   = 1.59089e-20
    Average internal energy         = 1.04961e-20
    Average total energy            = 2.6405e-20

ExecutionTime = 151.97 s  ClockTime = 154 s  Iterations: 97/1200  Projected time to finish: 28.8012 min
Time = 0.000294

    Collisions                      = 4346308
    Acceptance rate                 = 0.498844

Cloud name: dsmc
    Number of dsmc particles        = 81998
    Number of molecules             = 1.63996e+24
    Mass in system                  = 0.0762581
    Average linear momentum         = (7.69257e-25 4.31891e-26 7.55131e-28)
   |Average linear momentum|        = 7.70469e-25
    Average linear kinetic energy   = 1.5869e-20
    Average internal energy         = 1.0536e-20
    Average total energy            = 2.6405e-20

ExecutionTime = 153.56 s  ClockTime = 156 s  Iterations: 98/1200  Projected time to finish: 28.7794 min
Time = 0.000297

    Collisions                      = 4347552
    Acceptance rate                 = 0.499051

Cloud name: dsmc
    Number of dsmc particles        = 81998
    Number of molecules             = 1.63996e+24
    Mass in system                  = 0.0762581
    Average linear momentum         = (7.73955e-25 4.31891e-26 7.55131e-28)
   |Average linear momentum|        = 7.75159e-25
    Average linear kinetic energy   = 1.59115e-20
    Average internal energy         = 1.04935e-20
    Average total energy            = 2.6405e-20

ExecutionTime = 155.17 s  ClockTime = 158 s  Iterations: 99/1200  Projected time to finish: 28.7613 min
Time = 0.0003

    Collisions                      = 4343453
    Acceptance rate                 = 0.498378

Cloud name: dsmc
    Number of dsmc particles        = 81998
    Number of molecules             = 1.63996e+24
    Mass in system                  = 0.0762581
    Average linear momentum         = (7.81139e-25 4.31891e-26 7.55131e-28)
   |Average linear momentum|        = 7.82332e-25
    Average linear kinetic energy   = 1.58735e-20
    Average internal energy         = 1.05316e-20
    Average total energy            = 2.6405e-20

ExecutionTime = 156.69 s  ClockTime = 159 s  Iterations: 100/1200  Projected time to finish: 28.7265 min
Time = 0.000303

    Collisions                      = 4344154
    Acceptance rate                 = 0.498635

Cloud name: dsmc
    Number of dsmc particles        = 81998
    Number of molecules             = 1.63996e+24
    Mass in system                  = 0.0762581
    Average linear momentum         = (7.90406e-25 4.31891e-26 7.55131e-28)
   |Average linear momentum|        = 7.91585e-25
    Average linear kinetic energy   = 1.58411e-20
    Average internal energy         = 1.05639e-20
    Average total energy            = 2.6405e-20

ExecutionTime = 158.19 s  ClockTime = 161 s  Iterations: 101/1200  Projected time to finish: 28.6883 min
Time = 0.000306

    Collisions                      = 4342889
    Acceptance rate                 = 0.498437

Cloud name: dsmc
    Number of dsmc particles        = 81998
    Number of molecules             = 1.63996e+24
    Mass in system                  = 0.0762581
    Average linear momentum         = (7.97958e-25 4.31891e-26 7.55131e-28)
   |Average linear momentum|        = 7.99127e-25
    Average linear kinetic energy   = 1.58219e-20
    Average internal energy         = 1.05831e-20
    Average total energy            = 2.6405e-20

ExecutionTime = 159.81 s  ClockTime = 162 s  Iterations: 102/1200  Projected time to finish: 28.6718 min
Time = 0.000309

    Collisions                      = 4343090
    Acceptance rate                 = 0.49868

Cloud name: dsmc
    Number of dsmc particles        = 81998
    Number of molecules             = 1.63996e+24
    Mass in system                  = 0.0762581
    Average linear momentum         = (8.06726e-25 4.31891e-26 7.55131e-28)
   |Average linear momentum|        = 8.07881e-25
    Average linear kinetic energy   = 1.59368e-20
    Average internal energy         = 1.04682e-20
    Average total energy            = 2.6405e-20

ExecutionTime = 161.51 s  ClockTime = 164 s  Iterations: 103/1200  Projected time to finish: 28.6693 min
Time = 0.000312

    Collisions                      = 4342147
    Acceptance rate                 = 0.498621

Cloud name: dsmc
    Number of dsmc particles        = 81998
    Number of molecules             = 1.63996e+24
    Mass in system                  = 0.0762581
    Average linear momentum         = (8.15783e-25 4.31891e-26 7.55131e-28)
   |Average linear momentum|        = 8.16926e-25
    Average linear kinetic energy   = 1.58466e-20
    Average internal energy         = 1.05584e-20
    Average total energy            = 2.6405e-20

ExecutionTime = 163 s  ClockTime = 165 s  Iterations: 104/1200  Projected time to finish: 28.6295 min
Time = 0.000315

    Collisions                      = 4338629
    Acceptance rate                 = 0.498246

Cloud name: dsmc
    Number of dsmc particles        = 81998
    Number of molecules             = 1.63996e+24
    Mass in system                  = 0.0762581
    Average linear momentum         = (8.2816e-25 4.31891e-26 7.55131e-28)
   |Average linear momentum|        = 8.29286e-25
    Average linear kinetic energy   = 1.58748e-20
    Average internal energy         = 1.05302e-20
    Average total energy            = 2.6405e-20

ExecutionTime = 164.59 s  ClockTime = 167 s  Iterations: 105/1200  Projected time to finish: 28.6073 min
Time = 0.000318

    Collisions                      = 4342619
    Acceptance rate                 = 0.498711

Cloud name: dsmc
    Number of dsmc particles        = 81998
    Number of molecules             = 1.63996e+24
    Mass in system                  = 0.0762581
    Average linear momentum         = (8.34364e-25 4.31891e-26 7.55131e-28)
   |Average linear momentum|        = 8.35481e-25
    Average linear kinetic energy   = 1.59386e-20
    Average internal energy         = 1.04665e-20
    Average total energy            = 2.6405e-20

ExecutionTime = 166.14 s  ClockTime = 169 s  Iterations: 106/1200  Projected time to finish: 28.5782 min
Time = 0.000321

    Collisions                      = 4338326
    Acceptance rate                 = 0.498052

Cloud name: dsmc
    Number of dsmc particles        = 81998
    Number of molecules             = 1.63996e+24
    Mass in system                  = 0.0762581
    Average linear momentum         = (8.39007e-25 4.31891e-26 7.55131e-28)
   |Average linear momentum|        = 8.40118e-25
    Average linear kinetic energy   = 1.58651e-20
    Average internal energy         = 1.05399e-20
    Average total energy            = 2.6405e-20

ExecutionTime = 167.62 s  ClockTime = 170 s  Iterations: 107/1200  Projected time to finish: 28.5372 min
Time = 0.000324

    Collisions                      = 4339488
    Acceptance rate                 = 0.498027

Cloud name: dsmc
    Number of dsmc particles        = 81998
    Number of molecules             = 1.63996e+24
    Mass in system                  = 0.0762581
    Average linear momentum         = (8.47771e-25 4.31891e-26 7.55131e-28)
   |Average linear momentum|        = 8.48871e-25
    Average linear kinetic energy   = 1.58555e-20
    Average internal energy         = 1.05496e-20
    Average total energy            = 2.6405e-20

ExecutionTime = 169.12 s  ClockTime = 172 s  Iterations: 108/1200  Projected time to finish: 28.4999 min
Time = 0.000327

    Collisions                      = 4339470
    Acceptance rate                 = 0.498165

Cloud name: dsmc
    Number of dsmc particles        = 81998
    Number of molecules             = 1.63996e+24
    Mass in system                  = 0.0762581
    Average linear momentum         = (8.51942e-25 4.31891e-26 7.55131e-28)
   |Average linear momentum|        = 8.53037e-25
    Average linear kinetic energy   = 1.58212e-20
    Average internal energy         = 1.05838e-20
    Average total energy            = 2.6405e-20

ExecutionTime = 170.62 s  ClockTime = 173 s  Iterations: 109/1200  Projected time to finish: 28.4628 min
Time = 0.00033

    Collisions                      = 4340659
    Acceptance rate                 = 0.498174

Cloud name: dsmc
    Number of dsmc particles        = 81998
    Number of molecules             = 1.63996e+24
    Mass in system                  = 0.0762581
    Average linear momentum         = (8.56198e-25 4.31891e-26 7.55131e-28)
   |Average linear momentum|        = 8.57287e-25
    Average linear kinetic energy   = 1.59086e-20
    Average internal energy         = 1.04964e-20
    Average total energy            = 2.6405e-20

ExecutionTime = 172.22 s  ClockTime = 175 s  Iterations: 110/1200  Projected time to finish: 28.4424 min
Time = 0.000333

    Collisions                      = 4337298
    Acceptance rate                 = 0.497865

Cloud name: dsmc
    Number of dsmc particles        = 81998
    Number of molecules             = 1.63996e+24
    Mass in system                  = 0.0762581
    Average linear momentum         = (8.66255e-25 4.31891e-26 7.55131e-28)
   |Average linear momentum|        = 8.67332e-25
    Average linear kinetic energy   = 1.58839e-20
    Average internal energy         = 1.05212e-20
    Average total energy            = 2.6405e-20

ExecutionTime = 173.76 s  ClockTime = 176 s  Iterations: 111/1200  Projected time to finish: 28.4121 min
Time = 0.000336

    Collisions                      = 4336046
    Acceptance rate                 = 0.497689

Cloud name: dsmc
    Number of dsmc particles        = 81998
    Number of molecules             = 1.63996e+24
    Mass in system                  = 0.0762581
    Average linear momentum         = (8.69988e-25 4.31891e-26 7.55131e-28)
   |Average linear momentum|        = 8.7106e-25
    Average linear kinetic energy   = 1.58295e-20
    Average internal energy         = 1.05756e-20
    Average total energy            = 2.6405e-20

ExecutionTime = 175.31 s  ClockTime = 178 s  Iterations: 112/1200  Projected time to finish: 28.3835 min
Time = 0.000339

    Collisions                      = 4338628
    Acceptance rate                 = 0.497954

Cloud name: dsmc
    Number of dsmc particles        = 81998
    Number of molecules             = 1.63996e+24
    Mass in system                  = 0.0762581
    Average linear momentum         = (8.78806e-25 4.31891e-26 7.55131e-28)
   |Average linear momentum|        = 8.79867e-25
    Average linear kinetic energy   = 1.59381e-20
    Average internal energy         = 1.0467e-20
    Average total energy            = 2.6405e-20

ExecutionTime = 176.8 s  ClockTime = 179 s  Iterations: 113/1200  Projected time to finish: 28.3454 min
Time = 0.000342

    Collisions                      = 4336187
    Acceptance rate                 = 0.497678

Cloud name: dsmc
    Number of dsmc particles        = 81998
    Number of molecules             = 1.63996e+24
    Mass in system                  = 0.0762581
    Average linear momentum         = (8.84887e-25 4.31891e-26 7.55131e-28)
   |Average linear momentum|        = 8.8594e-25
    Average linear kinetic energy   = 1.58675e-20
    Average internal energy         = 1.05375e-20
    Average total energy            = 2.6405e-20

ExecutionTime = 178.23 s  ClockTime = 181 s  Iterations: 114/1200  Projected time to finish: 28.2979 min
Time = 0.000345

    Collisions                      = 4336450
    Acceptance rate                 = 0.497644

Cloud name: dsmc
    Number of dsmc particles        = 81998
    Number of molecules             = 1.63996e+24
    Mass in system                  = 0.0762581
    Average linear momentum         = (8.89468e-25 4.31891e-26 7.55131e-28)
   |Average linear momentum|        = 8.90516e-25
    Average linear kinetic energy   = 1.58929e-20
    Average internal energy         = 1.05122e-20
    Average total energy            = 2.6405e-20

ExecutionTime = 179.76 s  ClockTime = 182 s  Iterations: 115/1200  Projected time to finish: 28.2666 min
Time = 0.000348

    Collisions                      = 4337717
    Acceptance rate                 = 0.497756

Cloud name: dsmc
    Number of dsmc particles        = 81998
    Number of molecules             = 1.63996e+24
    Mass in system                  = 0.0762581
    Average linear momentum         = (8.97053e-25 4.31891e-26 7.55131e-28)
   |Average linear momentum|        = 8.98092e-25
    Average linear kinetic energy   = 1.59038e-20
    Average internal energy         = 1.05013e-20
    Average total energy            = 2.6405e-20

ExecutionTime = 181.34 s  ClockTime = 184 s  Iterations: 116/1200  Projected time to finish: 28.2432 min
Time = 0.000351

    Collisions                      = 4336555
    Acceptance rate                 = 0.497709

Cloud name: dsmc
    Number of dsmc particles        = 81998
    Number of molecules             = 1.63996e+24
    Mass in system                  = 0.0762581
    Average linear momentum         = (9.07316e-25 4.31891e-26 7.55131e-28)
   |Average linear momentum|        = 9.08344e-25
    Average linear kinetic energy   = 1.59118e-20
    Average internal energy         = 1.04932e-20
    Average total energy            = 2.6405e-20

ExecutionTime = 183.01 s  ClockTime = 186 s  Iterations: 117/1200  Projected time to finish: 28.2336 min
Time = 0.000354

    Collisions                      = 4335260
    Acceptance rate                 = 0.497519

Cloud name: dsmc
    Number of dsmc particles        = 81998
    Number of molecules             = 1.63996e+24
    Mass in system                  = 0.0762581
    Average linear momentum         = (9.10368e-25 4.31891e-26 7.55131e-28)
   |Average linear momentum|        = 9.11392e-25
    Average linear kinetic energy   = 1.59512e-20
    Average internal energy         = 1.04538e-20
    Average total energy            = 2.6405e-20

ExecutionTime = 184.51 s  ClockTime = 187 s  Iterations: 118/1200  Projected time to finish: 28.1977 min
Time = 0.000357

    Collisions                      = 4334832
    Acceptance rate                 = 0.497478

Cloud name: dsmc
    Number of dsmc particles        = 81998
    Number of molecules             = 1.63996e+24
    Mass in system                  = 0.0762581
    Average linear momentum         = (9.18777e-25 4.31891e-26 7.55131e-28)
   |Average linear momentum|        = 9.19792e-25
    Average linear kinetic energy   = 1.59071e-20
    Average internal energy         = 1.0498e-20
    Average total energy            = 2.6405e-20

ExecutionTime = 186.14 s  ClockTime = 189 s  Iterations: 119/1200  Projected time to finish: 28.1817 min
Time = 0.00036

    Collisions                      = 4334734
    Acceptance rate                 = 0.497618

Cloud name: dsmc
    Number of dsmc particles        = 81998
    Number of molecules             = 1.63996e+24
    Mass in system                  = 0.0762581
    Average linear momentum         = (9.26188e-25 4.31891e-26 7.55131e-28)
   |Average linear momentum|        = 9.27194e-25
    Average linear kinetic energy   = 1.59587e-20
    Average internal energy         = 1.04463e-20
    Average total energy            = 2.6405e-20

ExecutionTime = 187.93 s  ClockTime = 191 s  Iterations: 120/1200  Projected time to finish: 28.1895 min
Time = 0.000363

    Collisions                      = 4330645
[...]
   |Average linear momentum|        = 8.71277e-24
    Average linear kinetic energy   = 1.64955e-20
    Average internal energy         = 9.90954e-21
    Average total energy            = 2.6405e-20

ExecutionTime = 1828.01 s  ClockTime = 1837 s  Iterations: 1170/1200  Projected time to finish: 0.781201 min
Time = 0.003513

    Collisions                      = 3734610
    Acceptance rate                 = 0.4811

Cloud name: dsmc
    Number of dsmc particles        = 81998
    Number of molecules             = 1.63996e+24
    Mass in system                  = 0.0762581
    Average linear momentum         = (8.72453e-24 4.31891e-26 7.55131e-28)
   |Average linear momentum|        = 8.72464e-24
    Average linear kinetic energy   = 1.64862e-20
    Average internal energy         = 9.91884e-21
    Average total energy            = 2.6405e-20

ExecutionTime = 1829.45 s  ClockTime = 1838 s  Iterations: 1171/1200  Projected time to finish: 0.75511 min
Time = 0.003516

    Collisions                      = 3733612
    Acceptance rate                 = 0.480911

Cloud name: dsmc
    Number of dsmc particles        = 81998
    Number of molecules             = 1.63996e+24
    Mass in system                  = 0.0762581
    Average linear momentum         = (8.73348e-24 4.31891e-26 7.55131e-28)
   |Average linear momentum|        = 8.73358e-24
    Average linear kinetic energy   = 1.6463e-20
    Average internal energy         = 9.94206e-21
    Average total energy            = 2.6405e-20

ExecutionTime = 1830.93 s  ClockTime = 1840 s  Iterations: 1172/1200  Projected time to finish: 0.729039 min
Time = 0.003519

    Collisions                      = 3728291
    Acceptance rate                 = 0.480539

Cloud name: dsmc
    Number of dsmc particles        = 81998
    Number of molecules             = 1.63996e+24
    Mass in system                  = 0.0762581
    Average linear momentum         = (8.73884e-24 4.31891e-26 7.55131e-28)
   |Average linear momentum|        = 8.73895e-24
    Average linear kinetic energy   = 1.64531e-20
    Average internal energy         = 9.95187e-21
    Average total energy            = 2.6405e-20

ExecutionTime = 1832.42 s  ClockTime = 1841 s  Iterations: 1173/1200  Projected time to finish: 0.702974 min
Time = 0.003522

    Collisions                      = 3730196
    Acceptance rate                 = 0.480623

Cloud name: dsmc
    Number of dsmc particles        = 81998
    Number of molecules             = 1.63996e+24
    Mass in system                  = 0.0762581
    Average linear momentum         = (8.74675e-24 4.31891e-26 7.55131e-28)
   |Average linear momentum|        = 8.74686e-24
    Average linear kinetic energy   = 1.64404e-20
    Average internal energy         = 9.96459e-21
    Average total energy            = 2.6405e-20

ExecutionTime = 1834 s  ClockTime = 1843 s  Iterations: 1174/1200  Projected time to finish: 0.676945 min
Time = 0.003525

    Collisions                      = 3728048
    Acceptance rate                 = 0.480504

Cloud name: dsmc
    Number of dsmc particles        = 81998
    Number of molecules             = 1.63996e+24
    Mass in system                  = 0.0762581
    Average linear momentum         = (8.75676e-24 4.31891e-26 7.55131e-28)
   |Average linear momentum|        = 8.75687e-24
    Average linear kinetic energy   = 1.64185e-20
    Average internal energy         = 9.98655e-21
    Average total energy            = 2.6405e-20

ExecutionTime = 1835.5 s  ClockTime = 1844 s  Iterations: 1175/1200  Projected time to finish: 0.650887 min
Time = 0.003528

    Collisions                      = 3727996
    Acceptance rate                 = 0.480385

Cloud name: dsmc
    Number of dsmc particles        = 81998
    Number of molecules             = 1.63996e+24
    Mass in system                  = 0.0762581
    Average linear momentum         = (8.75805e-24 4.31891e-26 7.55131e-28)
   |Average linear momentum|        = 8.75816e-24
    Average linear kinetic energy   = 1.6489e-20
    Average internal energy         = 9.91607e-21
    Average total energy            = 2.6405e-20

ExecutionTime = 1836.96 s  ClockTime = 1846 s  Iterations: 1176/1200  Projected time to finish: 0.624816 min
Time = 0.003531

    Collisions                      = 3724072
    Acceptance rate                 = 0.480059

Cloud name: dsmc
    Number of dsmc particles        = 81998
    Number of molecules             = 1.63996e+24
    Mass in system                  = 0.0762581
    Average linear momentum         = (8.76675e-24 4.31891e-26 7.55131e-28)
   |Average linear momentum|        = 8.76686e-24
    Average linear kinetic energy   = 1.64268e-20
    Average internal energy         = 9.97823e-21
    Average total energy            = 2.6405e-20

ExecutionTime = 1838.46 s  ClockTime = 1847 s  Iterations: 1177/1200  Projected time to finish: 0.598762 min
Time = 0.003534

    Collisions                      = 3727209
    Acceptance rate                 = 0.480395

Cloud name: dsmc
    Number of dsmc particles        = 81998
    Number of molecules             = 1.63996e+24
    Mass in system                  = 0.0762581
    Average linear momentum         = (8.77357e-24 4.31891e-26 7.55131e-28)
   |Average linear momentum|        = 8.77367e-24
    Average linear kinetic energy   = 1.64868e-20
    Average internal energy         = 9.91821e-21
    Average total energy            = 2.6405e-20

ExecutionTime = 1840.01 s  ClockTime = 1849 s  Iterations: 1178/1200  Projected time to finish: 0.572725 min
Time = 0.003537

    Collisions                      = 3725251
    Acceptance rate                 = 0.480416

Cloud name: dsmc
    Number of dsmc particles        = 81998
    Number of molecules             = 1.63996e+24
    Mass in system                  = 0.0762581
    Average linear momentum         = (8.78126e-24 4.31891e-26 7.55131e-28)
   |Average linear momentum|        = 8.78136e-24
    Average linear kinetic energy   = 1.64423e-20
    Average internal energy         = 9.96267e-21
    Average total energy            = 2.6405e-20

ExecutionTime = 1841.46 s  ClockTime = 1850 s  Iterations: 1179/1200  Projected time to finish: 0.546659 min
Time = 0.00354

    Collisions                      = 3727891
    Acceptance rate                 = 0.480663

Cloud name: dsmc
    Number of dsmc particles        = 81998
    Number of molecules             = 1.63996e+24
    Mass in system                  = 0.0762581
    Average linear momentum         = (8.78961e-24 4.31891e-26 7.55131e-28)
   |Average linear momentum|        = 8.78972e-24
    Average linear kinetic energy   = 1.64505e-20
    Average internal energy         = 9.95449e-21
    Average total energy            = 2.6405e-20

ExecutionTime = 1842.96 s  ClockTime = 1852 s  Iterations: 1180/1200  Projected time to finish: 0.52061 min
Time = 0.003543

    Collisions                      = 3729154
    Acceptance rate                 = 0.480854

Cloud name: dsmc
    Number of dsmc particles        = 81998
    Number of molecules             = 1.63996e+24
    Mass in system                  = 0.0762581
    Average linear momentum         = (8.80136e-24 4.31891e-26 7.55131e-28)
   |Average linear momentum|        = 8.80146e-24
    Average linear kinetic energy   = 1.65184e-20
    Average internal energy         = 9.88664e-21
    Average total energy            = 2.6405e-20

ExecutionTime = 1844.4 s  ClockTime = 1853 s  Iterations: 1181/1200  Projected time to finish: 0.494547 min
Time = 0.003546

    Collisions                      = 3725300
    Acceptance rate                 = 0.480451

Cloud name: dsmc
    Number of dsmc particles        = 81998
    Number of molecules             = 1.63996e+24
    Mass in system                  = 0.0762581
    Average linear momentum         = (8.80507e-24 4.31891e-26 7.55131e-28)
   |Average linear momentum|        = 8.80518e-24
    Average linear kinetic energy   = 1.64615e-20
    Average internal energy         = 9.94355e-21
    Average total energy            = 2.6405e-20

ExecutionTime = 1845.87 s  ClockTime = 1855 s  Iterations: 1182/1200  Projected time to finish: 0.468495 min
Time = 0.003549

    Collisions                      = 3723885
    Acceptance rate                 = 0.480442

Cloud name: dsmc
    Number of dsmc particles        = 81998
    Number of molecules             = 1.63996e+24
    Mass in system                  = 0.0762581
    Average linear momentum         = (8.81184e-24 4.31891e-26 7.55131e-28)
   |Average linear momentum|        = 8.81195e-24
    Average linear kinetic energy   = 1.64086e-20
    Average internal energy         = 9.99646e-21
    Average total energy            = 2.6405e-20

ExecutionTime = 1847.34 s  ClockTime = 1856 s  Iterations: 1183/1200  Projected time to finish: 0.442445 min
Time = 0.003552

    Collisions                      = 3721540
    Acceptance rate                 = 0.480183

Cloud name: dsmc
    Number of dsmc particles        = 81998
    Number of molecules             = 1.63996e+24
    Mass in system                  = 0.0762581
    Average linear momentum         = (8.81665e-24 4.31891e-26 7.55131e-28)
   |Average linear momentum|        = 8.81676e-24
    Average linear kinetic energy   = 1.6494e-20
    Average internal energy         = 9.91104e-21
    Average total energy            = 2.6405e-20

ExecutionTime = 1848.82 s  ClockTime = 1858 s  Iterations: 1184/1200  Projected time to finish: 0.416401 min
Time = 0.003555

    Collisions                      = 3719945
    Acceptance rate                 = 0.480079

Cloud name: dsmc
    Number of dsmc particles        = 81998
    Number of molecules             = 1.63996e+24
    Mass in system                  = 0.0762581
    Average linear momentum         = (8.82331e-24 4.31891e-26 7.55131e-28)
   |Average linear momentum|        = 8.82341e-24
    Average linear kinetic energy   = 1.64579e-20
    Average internal energy         = 9.94717e-21
    Average total energy            = 2.6405e-20

ExecutionTime = 1850.26 s  ClockTime = 1859 s  Iterations: 1185/1200  Projected time to finish: 0.39035 min
Time = 0.003558

    Collisions                      = 3724980
    Acceptance rate                 = 0.480634

Cloud name: dsmc
    Number of dsmc particles        = 81998
    Number of molecules             = 1.63996e+24
    Mass in system                  = 0.0762581
    Average linear momentum         = (8.82842e-24 4.31891e-26 7.55131e-28)
   |Average linear momentum|        = 8.82853e-24
    Average linear kinetic energy   = 1.64581e-20
    Average internal energy         = 9.94691e-21
    Average total energy            = 2.6405e-20

ExecutionTime = 1851.64 s  ClockTime = 1861 s  Iterations: 1186/1200  Projected time to finish: 0.364291 min
Time = 0.003561

    Collisions                      = 3724244
    Acceptance rate                 = 0.480634

Cloud name: dsmc
    Number of dsmc particles        = 81998
    Number of molecules             = 1.63996e+24
    Mass in system                  = 0.0762581
    Average linear momentum         = (8.83956e-24 4.31891e-26 7.55131e-28)
   |Average linear momentum|        = 8.83967e-24
    Average linear kinetic energy   = 1.64486e-20
    Average internal energy         = 9.95641e-21
    Average total energy            = 2.6405e-20

ExecutionTime = 1853.12 s  ClockTime = 1862 s  Iterations: 1187/1200  Projected time to finish: 0.338256 min
Time = 0.003564

    Collisions                      = 3723259
    Acceptance rate                 = 0.480558

Cloud name: dsmc
    Number of dsmc particles        = 81998
    Number of molecules             = 1.63996e+24
    Mass in system                  = 0.0762581
    Average linear momentum         = (8.84728e-24 4.31891e-26 7.55131e-28)
   |Average linear momentum|        = 8.84739e-24
    Average linear kinetic energy   = 1.64926e-20
    Average internal energy         = 9.91246e-21
    Average total energy            = 2.6405e-20

ExecutionTime = 1854.64 s  ClockTime = 1864 s  Iterations: 1188/1200  Projected time to finish: 0.312229 min
Time = 0.003567

    Collisions                      = 3720918
    Acceptance rate                 = 0.480347

Cloud name: dsmc
    Number of dsmc particles        = 81998
    Number of molecules             = 1.63996e+24
    Mass in system                  = 0.0762581
    Average linear momentum         = (8.85179e-24 4.31891e-26 7.55131e-28)
   |Average linear momentum|        = 8.85189e-24
    Average linear kinetic energy   = 1.6442e-20
    Average internal energy         = 9.96305e-21
    Average total energy            = 2.6405e-20

ExecutionTime = 1856.2 s  ClockTime = 1865 s  Iterations: 1189/1200  Projected time to finish: 0.28621 min
Time = 0.00357

    Collisions                      = 3720380
    Acceptance rate                 = 0.480511

Cloud name: dsmc
    Number of dsmc particles        = 81998
    Number of molecules             = 1.63996e+24
    Mass in system                  = 0.0762581
    Average linear momentum         = (8.85647e-24 4.31891e-26 7.55131e-28)
   |Average linear momentum|        = 8.85657e-24
    Average linear kinetic energy   = 1.64303e-20
    Average internal energy         = 9.97469e-21
    Average total energy            = 2.6405e-20

ExecutionTime = 1857.6 s  ClockTime = 1867 s  Iterations: 1190/1200  Projected time to finish: 0.260168 min
Time = 0.003573

    Collisions                      = 3719870
    Acceptance rate                 = 0.480502

Cloud name: dsmc
    Number of dsmc particles        = 81998
    Number of molecules             = 1.63996e+24
    Mass in system                  = 0.0762581
    Average linear momentum         = (8.86515e-24 4.31891e-26 7.55131e-28)
   |Average linear momentum|        = 8.86525e-24
    Average linear kinetic energy   = 1.65036e-20
    Average internal energy         = 9.90145e-21
    Average total energy            = 2.6405e-20

ExecutionTime = 1859.09 s  ClockTime = 1868 s  Iterations: 1191/1200  Projected time to finish: 0.234142 min
Time = 0.003576

    Collisions                      = 3718629
    Acceptance rate                 = 0.480302

Cloud name: dsmc
    Number of dsmc particles        = 81998
    Number of molecules             = 1.63996e+24
    Mass in system                  = 0.0762581
    Average linear momentum         = (8.87325e-24 4.31891e-26 7.55131e-28)
   |Average linear momentum|        = 8.87335e-24
    Average linear kinetic energy   = 1.64756e-20
    Average internal energy         = 9.92944e-21
    Average total energy            = 2.6405e-20

ExecutionTime = 1860.64 s  ClockTime = 1870 s  Iterations: 1192/1200  Projected time to finish: 0.208125 min
Time = 0.003579

    Collisions                      = 3721000
    Acceptance rate                 = 0.480719

Cloud name: dsmc
    Number of dsmc particles        = 81998
    Number of molecules             = 1.63996e+24
    Mass in system                  = 0.0762581
    Average linear momentum         = (8.88003e-24 4.31891e-26 7.55131e-28)
   |Average linear momentum|        = 8.88013e-24
    Average linear kinetic energy   = 1.64628e-20
    Average internal energy         = 9.94217e-21
    Average total energy            = 2.6405e-20

ExecutionTime = 1862.14 s  ClockTime = 1871 s  Iterations: 1193/1200  Projected time to finish: 0.182104 min
Time = 0.003582

    Collisions                      = 3719940
    Acceptance rate                 = 0.480648

Cloud name: dsmc
    Number of dsmc particles        = 81998
    Number of molecules             = 1.63996e+24
    Mass in system                  = 0.0762581
    Average linear momentum         = (8.88705e-24 4.31891e-26 7.55131e-28)
   |Average linear momentum|        = 8.88715e-24
    Average linear kinetic energy   = 1.64691e-20
    Average internal energy         = 9.93587e-21
    Average total energy            = 2.6405e-20

ExecutionTime = 1863.67 s  ClockTime = 1873 s  Iterations: 1194/1200  Projected time to finish: 0.156086 min
Time = 0.003585

    Collisions                      = 3720402
    Acceptance rate                 = 0.480676

Cloud name: dsmc
    Number of dsmc particles        = 81998
    Number of molecules             = 1.63996e+24
    Mass in system                  = 0.0762581
    Average linear momentum         = (8.89728e-24 4.31891e-26 7.55131e-28)
   |Average linear momentum|        = 8.89738e-24
    Average linear kinetic energy   = 1.64716e-20
    Average internal energy         = 9.93338e-21
    Average total energy            = 2.6405e-20

ExecutionTime = 1865.12 s  ClockTime = 1874 s  Iterations: 1195/1200  Projected time to finish: 0.130064 min
Time = 0.003588

    Collisions                      = 3714840
    Acceptance rate                 = 0.48006

Cloud name: dsmc
    Number of dsmc particles        = 81998
    Number of molecules             = 1.63996e+24
    Mass in system                  = 0.0762581
    Average linear momentum         = (8.90231e-24 4.31891e-26 7.55131e-28)
   |Average linear momentum|        = 8.90241e-24
    Average linear kinetic energy   = 1.64553e-20
    Average internal energy         = 9.94975e-21
    Average total energy            = 2.6405e-20

ExecutionTime = 1866.6 s  ClockTime = 1876 s  Iterations: 1196/1200  Projected time to finish: 0.104047 min
Time = 0.003591

    Collisions                      = 3719016
    Acceptance rate                 = 0.480646

Cloud name: dsmc
    Number of dsmc particles        = 81998
    Number of molecules             = 1.63996e+24
    Mass in system                  = 0.0762581
    Average linear momentum         = (8.91239e-24 4.31891e-26 7.55131e-28)
   |Average linear momentum|        = 8.91249e-24
    Average linear kinetic energy   = 1.6428e-20
    Average internal energy         = 9.97701e-21
    Average total energy            = 2.6405e-20

ExecutionTime = 1868.14 s  ClockTime = 1877 s  Iterations: 1197/1200  Projected time to finish: 0.0780343 min
Time = 0.003594

    Collisions                      = 3714945
    Acceptance rate                 = 0.480202

Cloud name: dsmc
    Number of dsmc particles        = 81998
    Number of molecules             = 1.63996e+24
    Mass in system                  = 0.0762581
    Average linear momentum         = (8.92554e-24 4.31891e-26 7.55131e-28)
   |Average linear momentum|        = 8.92564e-24
    Average linear kinetic energy   = 1.6451e-20
    Average internal energy         = 9.95404e-21
    Average total energy            = 2.6405e-20

ExecutionTime = 1869.68 s  ClockTime = 1879 s  Iterations: 1198/1200  Projected time to finish: 0.0520223 min
Time = 0.003597

    Collisions                      = 3715505
    Acceptance rate                 = 0.480358

Cloud name: dsmc
    Number of dsmc particles        = 81998
    Number of molecules             = 1.63996e+24
    Mass in system                  = 0.0762581
    Average linear momentum         = (8.93516e-24 4.31891e-26 7.55131e-28)
   |Average linear momentum|        = 8.93527e-24
    Average linear kinetic energy   = 1.65031e-20
    Average internal energy         = 9.90191e-21
    Average total energy            = 2.6405e-20

ExecutionTime = 1871.21 s  ClockTime = 1880 s  Iterations: 1199/1200  Projected time to finish: 0.0260107 min
Time = 0.0036

    Collisions                      = 3716556
    Acceptance rate                 = 0.480374

Cloud name: dsmc
    Number of dsmc particles        = 81998
    Number of molecules             = 1.63996e+24
    Mass in system                  = 0.0762581
    Average linear momentum         = (8.93805e-24 4.31891e-26 7.55131e-28)
   |Average linear momentum|        = 8.93815e-24
    Average linear kinetic energy   = 1.64262e-20
    Average internal energy         = 9.97885e-21
    Average total energy            = 2.6405e-20

ExecutionTime = 1872.95 s  ClockTime = 1882 s  Iterations: 1200/1200  Projected time to finish: 3.07565e-13 min
End

Finalising parallel run
