--------------------------------------------------------------------------
WARNING: Linux kernel CMA support was requested via the
btl_vader_single_copy_mechanism MCA variable, but CMA support is
not available due to restrictive ptrace settings.

The vader shared memory BTL will fall back on another single-copy
mechanism if one is available. This may result in lower performance.

  Local host: DESKTOP-KF81SG4
--------------------------------------------------------------------------
/*---------------------------------------------------------------------------*\
  =========                 |
  \\      /  F ield         | OpenFOAM: The Open Source CFD Toolbox
   \\    /   O peration     | Website:  https://openfoam.org
    \\  /    A nd           | Version:  7
     \\/     M anipulation  |
\*---------------------------------------------------------------------------*/
Build  : 7-1ff648926f77
Exec   : dsmcFoamMod -parallel
Date   : Apr 04 2020
Time   : 23:35:57
Host   : "DESKTOP-KF81SG4"
PID    : 4625
I/O    : uncollated
Case   : /home/anthonygay1812/OpenFOAM/Working/oldDSMC/dsmcShockTube
nProcs : 4
Slaves : 
3
(
"DESKTOP-KF81SG4.4626"
"DESKTOP-KF81SG4.4627"
"DESKTOP-KF81SG4.4628"
)

Pstream initialized with:
    floatTransfer      : 0
    nProcsSimpleSum    : 0
    commsType          : nonBlocking
    polling iterations : 0
sigFpe : Enabling floating point exception trapping (FOAM_SIGFPE).
fileModificationChecking : Monitoring run-time modified files using timeStampMaster (fileModificationSkew 10)
allowSystemOperations : Allowing user-supplied system call operations

// * * * * * * * * * * * * * * * * * * * * * * * * * * * * * * * * * * * * * //
Create time

Create mesh for time = 0


Constructing dsmcCloud 
Selecting BinaryCollisionModel LarsenBorgnakkeVariableHardSphere
Selecting WallInteractionModel MaxwellianThermal
Selecting InflowBoundaryModel none

Constructing constant properties for
    N2

Starting time loop

Time = 6e-06

    Collisions                      = 6965846
    Acceptance rate                 = 0.964262

Cloud name: dsmc
    Number of dsmc particles        = 81998
    Number of molecules             = 1.63996e+24
    Mass in system                  = 0.0762581
    Average linear momentum         = (5.00044e-26 4.31891e-26 7.55131e-28)
   |Average linear momentum|        = 6.6078e-26
    Average linear kinetic energy   = 1.66158e-20
    Average internal energy         = 9.78925e-21
    Average total energy            = 2.6405e-20

ExecutionTime = 1.75 s  ClockTime = 3 s  Iterations: 1/600  Projected time to finish: 17.4708 min
Time = 1.2e-05

[DESKTOP-KF81SG4:04620] 3 more processes have sent help message help-btl-vader.txt / cma-permission-denied
[DESKTOP-KF81SG4:04620] Set MCA parameter "orte_base_help_aggregate" to 0 to see all help / error messages
    Collisions                      = 8766910
    Acceptance rate                 = 0.541485

Cloud name: dsmc
    Number of dsmc particles        = 81998
    Number of molecules             = 1.63996e+24
    Mass in system                  = 0.0762581
    Average linear momentum         = (5.50832e-26 4.31891e-26 7.55131e-28)
   |Average linear momentum|        = 7.00002e-26
    Average linear kinetic energy   = 1.59358e-20
    Average internal energy         = 1.04692e-20
    Average total energy            = 2.6405e-20

ExecutionTime = 4.72 s  ClockTime = 6 s  Iterations: 2/600  Projected time to finish: 23.5213 min
Time = 1.8e-05

    Collisions                      = 8771476
    Acceptance rate                 = 0.531362

Cloud name: dsmc
    Number of dsmc particles        = 81998
    Number of molecules             = 1.63996e+24
    Mass in system                  = 0.0762581
    Average linear momentum         = (7.13503e-26 4.31891e-26 7.55131e-28)
   |Average linear momentum|        = 8.3407e-26
    Average linear kinetic energy   = 1.59003e-20
    Average internal energy         = 1.05048e-20
    Average total energy            = 2.6405e-20

ExecutionTime = 7.9 s  ClockTime = 9 s  Iterations: 3/600  Projected time to finish: 26.2017 min
Time = 2.4e-05

    Collisions                      = 8779887
    Acceptance rate                 = 0.525964

Cloud name: dsmc
    Number of dsmc particles        = 81998
    Number of molecules             = 1.63996e+24
    Mass in system                  = 0.0762581
    Average linear momentum         = (8.67118e-26 4.31891e-26 7.55131e-28)
   |Average linear momentum|        = 9.68752e-26
    Average linear kinetic energy   = 1.58629e-20
    Average internal energy         = 1.05421e-20
    Average total energy            = 2.6405e-20

ExecutionTime = 10.83 s  ClockTime = 12 s  Iterations: 4/600  Projected time to finish: 26.8945 min
Time = 3e-05

    Collisions                      = 8778418
    Acceptance rate                 = 0.522698

Cloud name: dsmc
    Number of dsmc particles        = 81998
    Number of molecules             = 1.63996e+24
    Mass in system                  = 0.0762581
    Average linear momentum         = (1.08111e-25 4.31891e-26 7.55131e-28)
   |Average linear momentum|        = 1.16421e-25
    Average linear kinetic energy   = 1.58739e-20
    Average internal energy         = 1.05311e-20
    Average total energy            = 2.6405e-20

ExecutionTime = 13.92 s  ClockTime = 15 s  Iterations: 5/600  Projected time to finish: 27.608 min
Time = 3.6e-05

    Collisions                      = 8784121
    Acceptance rate                 = 0.521114

Cloud name: dsmc
    Number of dsmc particles        = 81998
    Number of molecules             = 1.63996e+24
    Mass in system                  = 0.0762581
    Average linear momentum         = (1.25201e-25 4.31891e-26 7.55131e-28)
   |Average linear momentum|        = 1.32443e-25
    Average linear kinetic energy   = 1.58767e-20
    Average internal energy         = 1.05284e-20
    Average total energy            = 2.6405e-20

ExecutionTime = 17.12 s  ClockTime = 18 s  Iterations: 6/600  Projected time to finish: 28.248 min
Time = 4.2e-05

    Collisions                      = 8785612
    Acceptance rate                 = 0.51953

Cloud name: dsmc
    Number of dsmc particles        = 81998
    Number of molecules             = 1.63996e+24
    Mass in system                  = 0.0762581
    Average linear momentum         = (1.44282e-25 4.31891e-26 7.55131e-28)
   |Average linear momentum|        = 1.50609e-25
    Average linear kinetic energy   = 1.58881e-20
    Average internal energy         = 1.05169e-20
    Average total energy            = 2.6405e-20

ExecutionTime = 20.29 s  ClockTime = 21 s  Iterations: 7/600  Projected time to finish: 28.6475 min
Time = 4.8e-05

    Collisions                      = 8783895
    Acceptance rate                 = 0.51703

Cloud name: dsmc
    Number of dsmc particles        = 81998
    Number of molecules             = 1.63996e+24
    Mass in system                  = 0.0762581
    Average linear momentum         = (1.57643e-25 4.31891e-26 7.55131e-28)
   |Average linear momentum|        = 1.63454e-25
    Average linear kinetic energy   = 1.58631e-20
    Average internal energy         = 1.05419e-20
    Average total energy            = 2.6405e-20

ExecutionTime = 23.51 s  ClockTime = 25 s  Iterations: 8/600  Projected time to finish: 28.9957 min
Time = 5.4e-05

    Collisions                      = 8784665
    Acceptance rate                 = 0.515549

Cloud name: dsmc
    Number of dsmc particles        = 81998
    Number of molecules             = 1.63996e+24
    Mass in system                  = 0.0762581
    Average linear momentum         = (1.64914e-25 4.31891e-26 7.55131e-28)
   |Average linear momentum|        = 1.70477e-25
    Average linear kinetic energy   = 1.58813e-20
    Average internal energy         = 1.05237e-20
    Average total energy            = 2.6405e-20

ExecutionTime = 26.62 s  ClockTime = 28 s  Iterations: 9/600  Projected time to finish: 29.1341 min
Time = 6e-05

    Collisions                      = 8780824
    Acceptance rate                 = 0.513787

Cloud name: dsmc
    Number of dsmc particles        = 81998
    Number of molecules             = 1.63996e+24
    Mass in system                  = 0.0762581
    Average linear momentum         = (1.7601e-25 4.31891e-26 7.55131e-28)
   |Average linear momentum|        = 1.81233e-25
    Average linear kinetic energy   = 1.58217e-20
    Average internal energy         = 1.05833e-20
    Average total energy            = 2.6405e-20

ExecutionTime = 29.74 s  ClockTime = 31 s  Iterations: 10/600  Projected time to finish: 29.2443 min
Time = 6.6e-05

    Collisions                      = 8785523
    Acceptance rate                 = 0.513368

Cloud name: dsmc
    Number of dsmc particles        = 81998
    Number of molecules             = 1.63996e+24
    Mass in system                  = 0.0762581
    Average linear momentum         = (1.93975e-25 4.31891e-26 7.55131e-28)
   |Average linear momentum|        = 1.98727e-25
    Average linear kinetic energy   = 1.58565e-20
    Average internal energy         = 1.05486e-20
    Average total energy            = 2.6405e-20

ExecutionTime = 32.89 s  ClockTime = 34 s  Iterations: 11/600  Projected time to finish: 29.3518 min
Time = 7.2e-05

    Collisions                      = 8775097
    Acceptance rate                 = 0.511587

Cloud name: dsmc
    Number of dsmc particles        = 81998
    Number of molecules             = 1.63996e+24
    Mass in system                  = 0.0762581
    Average linear momentum         = (2.0551e-25 4.31891e-26 7.55131e-28)
   |Average linear momentum|        = 2.10001e-25
    Average linear kinetic energy   = 1.58556e-20
    Average internal energy         = 1.05494e-20
    Average total energy            = 2.6405e-20

ExecutionTime = 36.03 s  ClockTime = 37 s  Iterations: 12/600  Projected time to finish: 29.4245 min
Time = 7.8e-05

    Collisions                      = 8771935
    Acceptance rate                 = 0.510562

Cloud name: dsmc
    Number of dsmc particles        = 81998
    Number of molecules             = 1.63996e+24
    Mass in system                  = 0.0762581
    Average linear momentum         = (2.31311e-25 4.31891e-26 7.55131e-28)
   |Average linear momentum|        = 2.35309e-25
    Average linear kinetic energy   = 1.58739e-20
    Average internal energy         = 1.05311e-20
    Average total energy            = 2.6405e-20

ExecutionTime = 39.13 s  ClockTime = 40 s  Iterations: 13/600  Projected time to finish: 29.4478 min
Time = 8.4e-05

    Collisions                      = 8780441
    Acceptance rate                 = 0.51047

Cloud name: dsmc
    Number of dsmc particles        = 81998
    Number of molecules             = 1.63996e+24
    Mass in system                  = 0.0762581
    Average linear momentum         = (2.45943e-25 4.31891e-26 7.55131e-28)
   |Average linear momentum|        = 2.49707e-25
    Average linear kinetic energy   = 1.58533e-20
    Average internal energy         = 1.05517e-20
    Average total energy            = 2.6405e-20

ExecutionTime = 42.3 s  ClockTime = 44 s  Iterations: 14/600  Projected time to finish: 29.5093 min
Time = 9e-05

    Collisions                      = 8772895
    Acceptance rate                 = 0.509699

Cloud name: dsmc
    Number of dsmc particles        = 81998
    Number of molecules             = 1.63996e+24
    Mass in system                  = 0.0762581
    Average linear momentum         = (2.58791e-25 4.31891e-26 7.55131e-28)
   |Average linear momentum|        = 2.62371e-25
    Average linear kinetic energy   = 1.5892e-20
    Average internal energy         = 1.05131e-20
    Average total energy            = 2.6405e-20

ExecutionTime = 45.31 s  ClockTime = 47 s  Iterations: 15/600  Projected time to finish: 29.4515 min
Time = 9.6e-05

    Collisions                      = 8768075
    Acceptance rate                 = 0.508768

Cloud name: dsmc
    Number of dsmc particles        = 81998
    Number of molecules             = 1.63996e+24
    Mass in system                  = 0.0762581
    Average linear momentum         = (2.72333e-25 4.31891e-26 7.55131e-28)
   |Average linear momentum|        = 2.75738e-25
    Average linear kinetic energy   = 1.58249e-20
    Average internal energy         = 1.05801e-20
    Average total energy            = 2.6405e-20

ExecutionTime = 48.36 s  ClockTime = 50 s  Iterations: 16/600  Projected time to finish: 29.419 min
Time = 0.000102

    Collisions                      = 8765208
    Acceptance rate                 = 0.508622

Cloud name: dsmc
    Number of dsmc particles        = 81998
    Number of molecules             = 1.63996e+24
    Mass in system                  = 0.0762581
    Average linear momentum         = (2.86159e-25 4.31891e-26 7.55131e-28)
   |Average linear momentum|        = 2.89401e-25
    Average linear kinetic energy   = 1.58992e-20
    Average internal energy         = 1.05058e-20
    Average total energy            = 2.6405e-20

ExecutionTime = 51.67 s  ClockTime = 53 s  Iterations: 17/600  Projected time to finish: 29.533 min
Time = 0.000108

    Collisions                      = 8768715
    Acceptance rate                 = 0.508295

Cloud name: dsmc
    Number of dsmc particles        = 81998
    Number of molecules             = 1.63996e+24
    Mass in system                  = 0.0762581
    Average linear momentum         = (2.93751e-25 4.31891e-26 7.55131e-28)
   |Average linear momentum|        = 2.9691e-25
    Average linear kinetic energy   = 1.58249e-20
    Average internal energy         = 1.05801e-20
    Average total energy            = 2.6405e-20

ExecutionTime = 54.89 s  ClockTime = 56 s  Iterations: 18/600  Projected time to finish: 29.5796 min
Time = 0.000114

    Collisions                      = 8759638
    Acceptance rate                 = 0.507434

Cloud name: dsmc
    Number of dsmc particles        = 81998
    Number of molecules             = 1.63996e+24
    Mass in system                  = 0.0762581
    Average linear momentum         = (3.06979e-25 4.31891e-26 7.55131e-28)
   |Average linear momentum|        = 3.10004e-25
    Average linear kinetic energy   = 1.58567e-20
    Average internal energy         = 1.05483e-20
    Average total energy            = 2.6405e-20

ExecutionTime = 58 s  ClockTime = 59 s  Iterations: 19/600  Projected time to finish: 29.5596 min
Time = 0.00012

    Collisions                      = 8760022
    Acceptance rate                 = 0.507223

Cloud name: dsmc
    Number of dsmc particles        = 81998
    Number of molecules             = 1.63996e+24
    Mass in system                  = 0.0762581
    Average linear momentum         = (3.22239e-25 4.31891e-26 7.55131e-28)
   |Average linear momentum|        = 3.25121e-25
    Average linear kinetic energy   = 1.58559e-20
    Average internal energy         = 1.05491e-20
    Average total energy            = 2.6405e-20

ExecutionTime = 61.17 s  ClockTime = 62 s  Iterations: 20/600  Projected time to finish: 29.5655 min
Time = 0.000126

    Collisions                      = 8749145
    Acceptance rate                 = 0.506562

Cloud name: dsmc
    Number of dsmc particles        = 81998
    Number of molecules             = 1.63996e+24
    Mass in system                  = 0.0762581
    Average linear momentum         = (3.39459e-25 4.31891e-26 7.55131e-28)
   |Average linear momentum|        = 3.42196e-25
    Average linear kinetic energy   = 1.59019e-20
    Average internal energy         = 1.05032e-20
    Average total energy            = 2.6405e-20

ExecutionTime = 64.23 s  ClockTime = 66 s  Iterations: 21/600  Projected time to finish: 29.5152 min
Time = 0.000132

    Collisions                      = 8748835
    Acceptance rate                 = 0.505714

Cloud name: dsmc
    Number of dsmc particles        = 81998
    Number of molecules             = 1.63996e+24
    Mass in system                  = 0.0762581
    Average linear momentum         = (3.48858e-25 4.31891e-26 7.55131e-28)
   |Average linear momentum|        = 3.51522e-25
    Average linear kinetic energy   = 1.59125e-20
    Average internal energy         = 1.04925e-20
    Average total energy            = 2.6405e-20

ExecutionTime = 67.36 s  ClockTime = 69 s  Iterations: 22/600  Projected time to finish: 29.4868 min
Time = 0.000138

    Collisions                      = 8749078
    Acceptance rate                 = 0.505602

Cloud name: dsmc
    Number of dsmc particles        = 81998
    Number of molecules             = 1.63996e+24
    Mass in system                  = 0.0762581
    Average linear momentum         = (3.64059e-25 4.31891e-26 7.55131e-28)
   |Average linear momentum|        = 3.66612e-25
    Average linear kinetic energy   = 1.58697e-20
    Average internal energy         = 1.05353e-20
    Average total energy            = 2.6405e-20

ExecutionTime = 70.47 s  ClockTime = 72 s  Iterations: 23/600  Projected time to finish: 29.4646 min
Time = 0.000144

    Collisions                      = 8747697
    Acceptance rate                 = 0.505387

Cloud name: dsmc
    Number of dsmc particles        = 81998
    Number of molecules             = 1.63996e+24
    Mass in system                  = 0.0762581
    Average linear momentum         = (3.8512e-25 4.31891e-26 7.55131e-28)
   |Average linear momentum|        = 3.87535e-25
    Average linear kinetic energy   = 1.58462e-20
    Average internal energy         = 1.05589e-20
    Average total energy            = 2.6405e-20

ExecutionTime = 73.55 s  ClockTime = 75 s  Iterations: 24/600  Projected time to finish: 29.42 min
Time = 0.00015

    Collisions                      = 8744085
    Acceptance rate                 = 0.504978

Cloud name: dsmc
    Number of dsmc particles        = 81998
    Number of molecules             = 1.63996e+24
    Mass in system                  = 0.0762581
    Average linear momentum         = (4.06849e-25 4.31891e-26 7.55131e-28)
   |Average linear momentum|        = 4.09135e-25
    Average linear kinetic energy   = 1.5838e-20
    Average internal energy         = 1.0567e-20
    Average total energy            = 2.6405e-20

ExecutionTime = 76.67 s  ClockTime = 78 s  Iterations: 25/600  Projected time to finish: 29.3902 min
Time = 0.000156

    Collisions                      = 8736321
    Acceptance rate                 = 0.504083

Cloud name: dsmc
    Number of dsmc particles        = 81998
    Number of molecules             = 1.63996e+24
    Mass in system                  = 0.0762581
    Average linear momentum         = (4.21573e-25 4.31891e-26 7.55131e-28)
   |Average linear momentum|        = 4.2378e-25
    Average linear kinetic energy   = 1.58182e-20
    Average internal energy         = 1.05868e-20
    Average total energy            = 2.6405e-20

ExecutionTime = 79.89 s  ClockTime = 81 s  Iterations: 26/600  Projected time to finish: 29.3954 min
Time = 0.000162

    Collisions                      = 8745587
    Acceptance rate                 = 0.504546

Cloud name: dsmc
    Number of dsmc particles        = 81998
    Number of molecules             = 1.63996e+24
    Mass in system                  = 0.0762581
    Average linear momentum         = (4.43793e-25 4.31891e-26 7.55131e-28)
   |Average linear momentum|        = 4.4589e-25
    Average linear kinetic energy   = 1.58473e-20
    Average internal energy         = 1.05577e-20
    Average total energy            = 2.6405e-20

ExecutionTime = 82.92 s  ClockTime = 84 s  Iterations: 27/600  Projected time to finish: 29.3291 min
Time = 0.000168

    Collisions                      = 8737908
    Acceptance rate                 = 0.504138

Cloud name: dsmc
    Number of dsmc particles        = 81998
    Number of molecules             = 1.63996e+24
    Mass in system                  = 0.0762581
    Average linear momentum         = (4.59894e-25 4.31891e-26 7.55131e-28)
   |Average linear momentum|        = 4.61918e-25
    Average linear kinetic energy   = 1.59203e-20
    Average internal energy         = 1.04847e-20
    Average total energy            = 2.6405e-20

ExecutionTime = 86.13 s  ClockTime = 87 s  Iterations: 28/600  Projected time to finish: 29.3252 min
Time = 0.000174

    Collisions                      = 8730343
    Acceptance rate                 = 0.503395

Cloud name: dsmc
    Number of dsmc particles        = 81998
    Number of molecules             = 1.63996e+24
    Mass in system                  = 0.0762581
    Average linear momentum         = (4.76185e-25 4.31891e-26 7.55131e-28)
   |Average linear momentum|        = 4.7814e-25
    Average linear kinetic energy   = 1.58755e-20
    Average internal energy         = 1.05295e-20
    Average total energy            = 2.6405e-20

ExecutionTime = 89.31 s  ClockTime = 91 s  Iterations: 29/600  Projected time to finish: 29.3081 min
Time = 0.00018

    Collisions                      = 8727517
    Acceptance rate                 = 0.503198

Cloud name: dsmc
    Number of dsmc particles        = 81998
    Number of molecules             = 1.63996e+24
    Mass in system                  = 0.0762581
    Average linear momentum         = (4.88377e-25 4.31891e-26 7.55131e-28)
   |Average linear momentum|        = 4.90283e-25
    Average linear kinetic energy   = 1.5904e-20
    Average internal energy         = 1.0501e-20
    Average total energy            = 2.6405e-20

ExecutionTime = 92.58 s  ClockTime = 94 s  Iterations: 30/600  Projected time to finish: 29.317 min
Time = 0.000186

    Collisions                      = 8726006
    Acceptance rate                 = 0.502731

Cloud name: dsmc
    Number of dsmc particles        = 81998
    Number of molecules             = 1.63996e+24
    Mass in system                  = 0.0762581
    Average linear momentum         = (5.06013e-25 4.31891e-26 7.55131e-28)
   |Average linear momentum|        = 5.07853e-25
    Average linear kinetic energy   = 1.58676e-20
    Average internal energy         = 1.05374e-20
    Average total energy            = 2.6405e-20

ExecutionTime = 95.69 s  ClockTime = 97 s  Iterations: 31/600  Projected time to finish: 29.2729 min
Time = 0.000192

    Collisions                      = 8721361
    Acceptance rate                 = 0.501924

Cloud name: dsmc
    Number of dsmc particles        = 81998
    Number of molecules             = 1.63996e+24
    Mass in system                  = 0.0762581
    Average linear momentum         = (5.12981e-25 4.31891e-26 7.55131e-28)
   |Average linear momentum|        = 5.14796e-25
    Average linear kinetic energy   = 1.59011e-20
    Average internal energy         = 1.05039e-20
    Average total energy            = 2.6405e-20

ExecutionTime = 98.84 s  ClockTime = 100 s  Iterations: 32/600  Projected time to finish: 29.2402 min
Time = 0.000198

    Collisions                      = 8722424
    Acceptance rate                 = 0.501933

Cloud name: dsmc
    Number of dsmc particles        = 81998
    Number of molecules             = 1.63996e+24
    Mass in system                  = 0.0762581
    Average linear momentum         = (5.3088e-25 4.31891e-26 7.55131e-28)
   |Average linear momentum|        = 5.32634e-25
    Average linear kinetic energy   = 1.58747e-20
    Average internal energy         = 1.05303e-20
    Average total energy            = 2.6405e-20

ExecutionTime = 101.99 s  ClockTime = 103 s  Iterations: 33/600  Projected time to finish: 29.2062 min
Time = 0.000204

    Collisions                      = 8718047
    Acceptance rate                 = 0.501591

Cloud name: dsmc
    Number of dsmc particles        = 81998
    Number of molecules             = 1.63996e+24
    Mass in system                  = 0.0762581
    Average linear momentum         = (5.4757e-25 4.31891e-26 7.55131e-28)
   |Average linear momentum|        = 5.49271e-25
    Average linear kinetic energy   = 1.58614e-20
    Average internal energy         = 1.05437e-20
    Average total energy            = 2.6405e-20

ExecutionTime = 105.08 s  ClockTime = 106 s  Iterations: 34/600  Projected time to finish: 29.1545 min
Time = 0.00021

    Collisions                      = 8721494
    Acceptance rate                 = 0.50153

Cloud name: dsmc
    Number of dsmc particles        = 81998
    Number of molecules             = 1.63996e+24
    Mass in system                  = 0.0762581
    Average linear momentum         = (5.64489e-25 4.31891e-26 7.55131e-28)
   |Average linear momentum|        = 5.66139e-25
    Average linear kinetic energy   = 1.58655e-20
    Average internal energy         = 1.05395e-20
    Average total energy            = 2.6405e-20

ExecutionTime = 108.19 s  ClockTime = 110 s  Iterations: 35/600  Projected time to finish: 29.1083 min
Time = 0.000216

    Collisions                      = 8720269
    Acceptance rate                 = 0.500943

Cloud name: dsmc
    Number of dsmc particles        = 81998
    Number of molecules             = 1.63996e+24
    Mass in system                  = 0.0762581
    Average linear momentum         = (5.70614e-25 4.31891e-26 7.55131e-28)
   |Average linear momentum|        = 5.72246e-25
    Average linear kinetic energy   = 1.58898e-20
    Average internal energy         = 1.05152e-20
    Average total energy            = 2.6405e-20

ExecutionTime = 111.34 s  ClockTime = 113 s  Iterations: 36/600  Projected time to finish: 29.0721 min
Time = 0.000222

    Collisions                      = 8714776
    Acceptance rate                 = 0.500606

Cloud name: dsmc
    Number of dsmc particles        = 81998
    Number of molecules             = 1.63996e+24
    Mass in system                  = 0.0762581
    Average linear momentum         = (5.87631e-25 4.31891e-26 7.55131e-28)
   |Average linear momentum|        = 5.89216e-25
    Average linear kinetic energy   = 1.58951e-20
    Average internal energy         = 1.051e-20
    Average total energy            = 2.6405e-20

ExecutionTime = 114.45 s  ClockTime = 116 s  Iterations: 37/600  Projected time to finish: 29.0249 min
Time = 0.000228

    Collisions                      = 8713184
    Acceptance rate                 = 0.500544

Cloud name: dsmc
    Number of dsmc particles        = 81998
    Number of molecules             = 1.63996e+24
    Mass in system                  = 0.0762581
    Average linear momentum         = (6.03959e-25 4.31891e-26 7.55131e-28)
   |Average linear momentum|        = 6.05502e-25
    Average linear kinetic energy   = 1.58861e-20
    Average internal energy         = 1.05189e-20
    Average total energy            = 2.6405e-20

ExecutionTime = 117.62 s  ClockTime = 119 s  Iterations: 38/600  Projected time to finish: 28.9923 min
Time = 0.000234

    Collisions                      = 8713699
    Acceptance rate                 = 0.500583

Cloud name: dsmc
    Number of dsmc particles        = 81998
    Number of molecules             = 1.63996e+24
    Mass in system                  = 0.0762581
    Average linear momentum         = (6.23405e-25 4.31891e-26 7.55131e-28)
   |Average linear momentum|        = 6.249e-25
    Average linear kinetic energy   = 1.5867e-20
    Average internal energy         = 1.05381e-20
    Average total energy            = 2.6405e-20

ExecutionTime = 120.79 s  ClockTime = 122 s  Iterations: 39/600  Projected time to finish: 28.9586 min
Time = 0.00024

    Collisions                      = 8710163
    Acceptance rate                 = 0.500624

Cloud name: dsmc
    Number of dsmc particles        = 81998
    Number of molecules             = 1.63996e+24
    Mass in system                  = 0.0762581
    Average linear momentum         = (6.39231e-25 4.31891e-26 7.55131e-28)
   |Average linear momentum|        = 6.40689e-25
    Average linear kinetic energy   = 1.59068e-20
    Average internal energy         = 1.04982e-20
    Average total energy            = 2.6405e-20

ExecutionTime = 123.95 s  ClockTime = 125 s  Iterations: 40/600  Projected time to finish: 28.9217 min
Time = 0.000246

    Collisions                      = 8706823
    Acceptance rate                 = 0.500322

Cloud name: dsmc
    Number of dsmc particles        = 81998
    Number of molecules             = 1.63996e+24
    Mass in system                  = 0.0762581
    Average linear momentum         = (6.5412e-25 4.31891e-26 7.55131e-28)
   |Average linear momentum|        = 6.55545e-25
    Average linear kinetic energy   = 1.59046e-20
    Average internal energy         = 1.05004e-20
    Average total energy            = 2.6405e-20

ExecutionTime = 127.23 s  ClockTime = 129 s  Iterations: 41/600  Projected time to finish: 28.9112 min
Time = 0.000252

    Collisions                      = 8705700
    Acceptance rate                 = 0.500046

Cloud name: dsmc
    Number of dsmc particles        = 81998
    Number of molecules             = 1.63996e+24
    Mass in system                  = 0.0762581
    Average linear momentum         = (6.67081e-25 4.31891e-26 7.55131e-28)
   |Average linear momentum|        = 6.68478e-25
    Average linear kinetic energy   = 1.5954e-20
    Average internal energy         = 1.0451e-20
    Average total energy            = 2.6405e-20

ExecutionTime = 130.2 s  ClockTime = 132 s  Iterations: 42/600  Projected time to finish: 28.83 min
Time = 0.000258

    Collisions                      = 8705037
    Acceptance rate                 = 0.499668

Cloud name: dsmc
    Number of dsmc particles        = 81998
    Number of molecules             = 1.63996e+24
    Mass in system                  = 0.0762581
    Average linear momentum         = (6.85581e-25 4.31891e-26 7.55131e-28)
   |Average linear momentum|        = 6.8694e-25
    Average linear kinetic energy   = 1.58863e-20
    Average internal energy         = 1.05188e-20
    Average total energy            = 2.6405e-20

ExecutionTime = 133.43 s  ClockTime = 135 s  Iterations: 43/600  Projected time to finish: 28.8064 min
Time = 0.000264

    Collisions                      = 8705018
    Acceptance rate                 = 0.49987

Cloud name: dsmc
    Number of dsmc particles        = 81998
    Number of molecules             = 1.63996e+24
    Mass in system                  = 0.0762581
    Average linear momentum         = (6.91844e-25 4.31891e-26 7.55131e-28)
   |Average linear momentum|        = 6.93191e-25
    Average linear kinetic energy   = 1.58888e-20
    Average internal energy         = 1.05162e-20
    Average total energy            = 2.6405e-20

ExecutionTime = 136.5 s  ClockTime = 138 s  Iterations: 44/600  Projected time to finish: 28.7477 min
Time = 0.00027

    Collisions                      = 8698053
    Acceptance rate                 = 0.499433

Cloud name: dsmc
    Number of dsmc particles        = 81998
    Number of molecules             = 1.63996e+24
    Mass in system                  = 0.0762581
    Average linear momentum         = (7.05933e-25 4.31891e-26 7.55131e-28)
   |Average linear momentum|        = 7.07253e-25
    Average linear kinetic energy   = 1.58978e-20
    Average internal energy         = 1.05073e-20
    Average total energy            = 2.6405e-20

ExecutionTime = 139.68 s  ClockTime = 141 s  Iterations: 45/600  Projected time to finish: 28.712 min
Time = 0.000276

    Collisions                      = 8697775
    Acceptance rate                 = 0.499275

Cloud name: dsmc
    Number of dsmc particles        = 81998
    Number of molecules             = 1.63996e+24
    Mass in system                  = 0.0762581
    Average linear momentum         = (7.23261e-25 4.31891e-26 7.55131e-28)
   |Average linear momentum|        = 7.2455e-25
    Average linear kinetic energy   = 1.59037e-20
    Average internal energy         = 1.05013e-20
    Average total energy            = 2.6405e-20

ExecutionTime = 142.87 s  ClockTime = 144 s  Iterations: 46/600  Projected time to finish: 28.6775 min
Time = 0.000282

    Collisions                      = 8700089
    Acceptance rate                 = 0.499505

Cloud name: dsmc
    Number of dsmc particles        = 81998
    Number of molecules             = 1.63996e+24
    Mass in system                  = 0.0762581
    Average linear momentum         = (7.39997e-25 4.31891e-26 7.55131e-28)
   |Average linear momentum|        = 7.41256e-25
    Average linear kinetic energy   = 1.58454e-20
    Average internal energy         = 1.05597e-20
    Average total energy            = 2.6405e-20

ExecutionTime = 146.07 s  ClockTime = 148 s  Iterations: 47/600  Projected time to finish: 28.6442 min
Time = 0.000288

    Collisions                      = 8691775
    Acceptance rate                 = 0.498929

Cloud name: dsmc
    Number of dsmc particles        = 81998
    Number of molecules             = 1.63996e+24
    Mass in system                  = 0.0762581
    Average linear momentum         = (7.54948e-25 4.31891e-26 7.55131e-28)
   |Average linear momentum|        = 7.56183e-25
    Average linear kinetic energy   = 1.58627e-20
    Average internal energy         = 1.05423e-20
    Average total energy            = 2.6405e-20

ExecutionTime = 149.14 s  ClockTime = 151 s  Iterations: 48/600  Projected time to finish: 28.5852 min
Time = 0.000294

    Collisions                      = 8689834
    Acceptance rate                 = 0.498728

Cloud name: dsmc
    Number of dsmc particles        = 81998
    Number of molecules             = 1.63996e+24
    Mass in system                  = 0.0762581
    Average linear momentum         = (7.66946e-25 4.31891e-26 7.55131e-28)
   |Average linear momentum|        = 7.68161e-25
    Average linear kinetic energy   = 1.58564e-20
    Average internal energy         = 1.05486e-20
    Average total energy            = 2.6405e-20

ExecutionTime = 152.35 s  ClockTime = 154 s  Iterations: 49/600  Projected time to finish: 28.5527 min
Time = 0.0003

    Collisions                      = 8691469
    Acceptance rate                 = 0.498671

Cloud name: dsmc
    Number of dsmc particles        = 81998
    Number of molecules             = 1.63996e+24
    Mass in system                  = 0.0762581
    Average linear momentum         = (7.81362e-25 4.31891e-26 7.55131e-28)
   |Average linear momentum|        = 7.82555e-25
    Average linear kinetic energy   = 1.5926e-20
    Average internal energy         = 1.0479e-20
    Average total energy            = 2.6405e-20

ExecutionTime = 155.51 s  ClockTime = 157 s  Iterations: 50/600  Projected time to finish: 28.5102 min
Time = 0.000306

    Collisions                      = 8683782
    Acceptance rate                 = 0.498436

Cloud name: dsmc
    Number of dsmc particles        = 81998
    Number of molecules             = 1.63996e+24
    Mass in system                  = 0.0762581
    Average linear momentum         = (7.94248e-25 4.31891e-26 7.55131e-28)
   |Average linear momentum|        = 7.95422e-25
    Average linear kinetic energy   = 1.58376e-20
    Average internal energy         = 1.05674e-20
    Average total energy            = 2.6405e-20

ExecutionTime = 158.73 s  ClockTime = 160 s  Iterations: 51/600  Projected time to finish: 28.478 min
Time = 0.000312

    Collisions                      = 8676785
    Acceptance rate                 = 0.498002

Cloud name: dsmc
    Number of dsmc particles        = 81998
    Number of molecules             = 1.63996e+24
    Mass in system                  = 0.0762581
    Average linear momentum         = (8.0963e-25 4.31891e-26 7.55131e-28)
   |Average linear momentum|        = 8.10782e-25
    Average linear kinetic energy   = 1.59127e-20
    Average internal energy         = 1.04923e-20
    Average total energy            = 2.6405e-20

ExecutionTime = 161.93 s  ClockTime = 164 s  Iterations: 52/600  Projected time to finish: 28.4416 min
Time = 0.000318

    Collisions                      = 8677228
    Acceptance rate                 = 0.497902

Cloud name: dsmc
    Number of dsmc particles        = 81998
    Number of molecules             = 1.63996e+24
    Mass in system                  = 0.0762581
    Average linear momentum         = (8.2206e-25 4.31891e-26 7.55131e-28)
   |Average linear momentum|        = 8.23194e-25
    Average linear kinetic energy   = 1.58644e-20
    Average internal energy         = 1.05406e-20
    Average total energy            = 2.6405e-20

ExecutionTime = 165.04 s  ClockTime = 167 s  Iterations: 53/600  Projected time to finish: 28.389 min
Time = 0.000324

    Collisions                      = 8683091
    Acceptance rate                 = 0.497985

Cloud name: dsmc
    Number of dsmc particles        = 81998
    Number of molecules             = 1.63996e+24
    Mass in system                  = 0.0762581
    Average linear momentum         = (8.3902e-25 4.31891e-26 7.55131e-28)
   |Average linear momentum|        = 8.40131e-25
    Average linear kinetic energy   = 1.58606e-20
    Average internal energy         = 1.05444e-20
    Average total energy            = 2.6405e-20

ExecutionTime = 168.25 s  ClockTime = 170 s  Iterations: 54/600  Projected time to finish: 28.3532 min
Time = 0.00033

    Collisions                      = 8671761
    Acceptance rate                 = 0.49743

Cloud name: dsmc
    Number of dsmc particles        = 81998
    Number of molecules             = 1.63996e+24
    Mass in system                  = 0.0762581
    Average linear momentum         = (8.50482e-25 4.31891e-26 7.55131e-28)
   |Average linear momentum|        = 8.51578e-25
    Average linear kinetic energy   = 1.58459e-20
    Average internal energy         = 1.05592e-20
    Average total energy            = 2.6405e-20

ExecutionTime = 171.37 s  ClockTime = 173 s  Iterations: 55/600  Projected time to finish: 28.302 min
Time = 0.000336

    Collisions                      = 8675550
    Acceptance rate                 = 0.497306

Cloud name: dsmc
    Number of dsmc particles        = 81998
    Number of molecules             = 1.63996e+24
    Mass in system                  = 0.0762581
    Average linear momentum         = (8.64824e-25 4.31891e-26 7.55131e-28)
   |Average linear momentum|        = 8.65902e-25
    Average linear kinetic energy   = 1.59364e-20
    Average internal energy         = 1.04686e-20
    Average total energy            = 2.6405e-20

ExecutionTime = 174.53 s  ClockTime = 176 s  Iterations: 56/600  Projected time to finish: 28.2572 min
Time = 0.000342

    Collisions                      = 8674580
    Acceptance rate                 = 0.497313

Cloud name: dsmc
    Number of dsmc particles        = 81998
    Number of molecules             = 1.63996e+24
    Mass in system                  = 0.0762581
    Average linear momentum         = (8.82371e-25 4.31891e-26 7.55131e-28)
   |Average linear momentum|        = 8.83427e-25
    Average linear kinetic energy   = 1.58985e-20
    Average internal energy         = 1.05066e-20
    Average total energy            = 2.6405e-20

ExecutionTime = 177.48 s  ClockTime = 179 s  Iterations: 57/600  Projected time to finish: 28.1788 min
Time = 0.000348

    Collisions                      = 8667050
    Acceptance rate                 = 0.497213

Cloud name: dsmc
    Number of dsmc particles        = 81998
    Number of molecules             = 1.63996e+24
    Mass in system                  = 0.0762581
    Average linear momentum         = (8.92352e-25 4.31891e-26 7.55131e-28)
   |Average linear momentum|        = 8.93396e-25
    Average linear kinetic energy   = 1.58665e-20
    Average internal energy         = 1.05386e-20
    Average total energy            = 2.6405e-20

ExecutionTime = 180.67 s  ClockTime = 182 s  Iterations: 58/600  Projected time to finish: 28.1388 min
Time = 0.000354

    Collisions                      = 8666798
    Acceptance rate                 = 0.497317

Cloud name: dsmc
    Number of dsmc particles        = 81998
    Number of molecules             = 1.63996e+24
    Mass in system                  = 0.0762581
    Average linear momentum         = (9.07106e-25 4.31891e-26 7.55131e-28)
   |Average linear momentum|        = 9.08134e-25
    Average linear kinetic energy   = 1.58751e-20
    Average internal energy         = 1.05299e-20
    Average total energy            = 2.6405e-20

ExecutionTime = 183.64 s  ClockTime = 185 s  Iterations: 59/600  Projected time to finish: 28.0648 min
Time = 0.00036

    Collisions                      = 8665460
    Acceptance rate                 = 0.49723

Cloud name: dsmc
    Number of dsmc particles        = 81998
    Number of molecules             = 1.63996e+24
    Mass in system                  = 0.0762581
    Average linear momentum         = (9.24216e-25 4.31891e-26 7.55131e-28)
   |Average linear momentum|        = 9.25225e-25
    Average linear kinetic energy   = 1.58876e-20
    Average internal energy         = 1.05174e-20
    Average total energy            = 2.6405e-20

ExecutionTime = 187.03 s  ClockTime = 189 s  Iterations: 60/600  Projected time to finish: 28.0545 min
Time = 0.000366

    Collisions                      = 8660467
    Acceptance rate                 = 0.496953

Cloud name: dsmc
    Number of dsmc particles        = 81998
    Number of molecules             = 1.63996e+24
    Mass in system                  = 0.0762581
    Average linear momentum         = (9.24925e-25 4.31891e-26 7.55131e-28)
   |Average linear momentum|        = 9.25933e-25
    Average linear kinetic energy   = 1.59271e-20
    Average internal energy         = 1.0478e-20
    Average total energy            = 2.6405e-20

ExecutionTime = 190.33 s  ClockTime = 192 s  Iterations: 61/600  Projected time to finish: 28.0295 min
Time = 0.000372

    Collisions                      = 8657436
    Acceptance rate                 = 0.496775

Cloud name: dsmc
    Number of dsmc particles        = 81998
    Number of molecules             = 1.63996e+24
    Mass in system                  = 0.0762581
    Average linear momentum         = (9.43909e-25 4.31891e-26 7.55131e-28)
   |Average linear momentum|        = 9.44897e-25
    Average linear kinetic energy   = 1.58754e-20
    Average internal energy         = 1.05296e-20
    Average total energy            = 2.6405e-20

ExecutionTime = 193.64 s  ClockTime = 195 s  Iterations: 62/600  Projected time to finish: 28.0049 min
Time = 0.000378

    Collisions                      = 8654351
    Acceptance rate                 = 0.496638

Cloud name: dsmc
    Number of dsmc particles        = 81998
    Number of molecules             = 1.63996e+24
    Mass in system                  = 0.0762581
    Average linear momentum         = (9.53538e-25 4.31891e-26 7.55131e-28)
   |Average linear momentum|        = 9.54516e-25
    Average linear kinetic energy   = 1.58917e-20
    Average internal energy         = 1.05133e-20
    Average total energy            = 2.6405e-20

ExecutionTime = 196.76 s  ClockTime = 198 s  Iterations: 63/600  Projected time to finish: 27.9524 min
Time = 0.000384

    Collisions                      = 8653560
    Acceptance rate                 = 0.496549

Cloud name: dsmc
    Number of dsmc particles        = 81998
    Number of molecules             = 1.63996e+24
    Mass in system                  = 0.0762581
    Average linear momentum         = (9.7459e-25 4.31891e-26 7.55131e-28)
   |Average linear momentum|        = 9.75547e-25
    Average linear kinetic energy   = 1.59776e-20
    Average internal energy         = 1.04274e-20
    Average total energy            = 2.6405e-20

ExecutionTime = 200.01 s  ClockTime = 202 s  Iterations: 64/600  Projected time to finish: 27.9181 min
Time = 0.00039

    Collisions                      = 8654690
    Acceptance rate                 = 0.496659

Cloud name: dsmc
    Number of dsmc particles        = 81998
    Number of molecules             = 1.63996e+24
    Mass in system                  = 0.0762581
    Average linear momentum         = (9.8708e-25 4.31891e-26 7.55131e-28)
   |Average linear momentum|        = 9.88025e-25
    Average linear kinetic energy   = 1.59049e-20
    Average internal energy         = 1.05001e-20
    Average total energy            = 2.6405e-20

ExecutionTime = 203.12 s  ClockTime = 205 s  Iterations: 65/600  Projected time to finish: 27.8639 min
Time = 0.000396

    Collisions                      = 8654679
    Acceptance rate                 = 0.496496

Cloud name: dsmc
    Number of dsmc particles        = 81998
    Number of molecules             = 1.63996e+24
    Mass in system                  = 0.0762581
    Average linear momentum         = (1.00004e-24 4.31891e-26 7.55131e-28)
   |Average linear momentum|        = 1.00097e-24
    Average linear kinetic energy   = 1.59213e-20
    Average internal energy         = 1.04838e-20
    Average total energy            = 2.6405e-20

ExecutionTime = 206.42 s  ClockTime = 208 s  Iterations: 66/600  Projected time to finish: 27.8354 min
Time = 0.000402

    Collisions                      = 8651800
    Acceptance rate                 = 0.496053

Cloud name: dsmc
    Number of dsmc particles        = 81998
    Number of molecules             = 1.63996e+24
    Mass in system                  = 0.0762581
    Average linear momentum         = (1.01387e-24 4.31891e-26 7.55131e-28)
   |Average linear momentum|        = 1.01479e-24
    Average linear kinetic energy   = 1.5912e-20
    Average internal energy         = 1.0493e-20
    Average total energy            = 2.6405e-20

ExecutionTime = 209.48 s  ClockTime = 211 s  Iterations: 67/600  Projected time to finish: 27.7743 min
Time = 0.000408

    Collisions                      = 8647829
    Acceptance rate                 = 0.495837

Cloud name: dsmc
    Number of dsmc particles        = 81998
    Number of molecules             = 1.63996e+24
    Mass in system                  = 0.0762581
    Average linear momentum         = (1.03211e-24 4.31891e-26 7.55131e-28)
   |Average linear momentum|        = 1.03302e-24
    Average linear kinetic energy   = 1.5899e-20
    Average internal energy         = 1.0506e-20
    Average total energy            = 2.6405e-20

ExecutionTime = 212.65 s  ClockTime = 214 s  Iterations: 68/600  Projected time to finish: 27.7279 min
Time = 0.000414

    Collisions                      = 8647091
    Acceptance rate                 = 0.495944

Cloud name: dsmc
    Number of dsmc particles        = 81998
    Number of molecules             = 1.63996e+24
    Mass in system                  = 0.0762581
    Average linear momentum         = (1.0455e-24 4.31891e-26 7.55131e-28)
   |Average linear momentum|        = 1.04639e-24
    Average linear kinetic energy   = 1.58786e-20
    Average internal energy         = 1.05265e-20
    Average total energy            = 2.6405e-20

ExecutionTime = 215.75 s  ClockTime = 218 s  Iterations: 69/600  Projected time to finish: 27.6723 min
Time = 0.00042

    Collisions                      = 8646216
    Acceptance rate                 = 0.496047

Cloud name: dsmc
    Number of dsmc particles        = 81998
    Number of molecules             = 1.63996e+24
    Mass in system                  = 0.0762581
    Average linear momentum         = (1.061e-24 4.31891e-26 7.55131e-28)
   |Average linear momentum|        = 1.06188e-24
    Average linear kinetic energy   = 1.58999e-20
    Average internal energy         = 1.05051e-20
    Average total energy            = 2.6405e-20

ExecutionTime = 219.15 s  ClockTime = 221 s  Iterations: 70/600  Projected time to finish: 27.6546 min
Time = 0.000426

    Collisions                      = 8640386
    Acceptance rate                 = 0.495683

Cloud name: dsmc
    Number of dsmc particles        = 81998
    Number of molecules             = 1.63996e+24
    Mass in system                  = 0.0762581
    Average linear momentum         = (1.07403e-24 4.31891e-26 7.55131e-28)
   |Average linear momentum|        = 1.0749e-24
    Average linear kinetic energy   = 1.58979e-20
    Average internal energy         = 1.05071e-20
    Average total energy            = 2.6405e-20

ExecutionTime = 222.44 s  ClockTime = 224 s  Iterations: 71/600  Projected time to finish: 27.6222 min
Time = 0.000432

    Collisions                      = 8641210
    Acceptance rate                 = 0.495704

Cloud name: dsmc
    Number of dsmc particles        = 81998
    Number of molecules             = 1.63996e+24
    Mass in system                  = 0.0762581
    Average linear momentum         = (1.09384e-24 4.31891e-26 7.55131e-28)
   |Average linear momentum|        = 1.09469e-24
    Average linear kinetic energy   = 1.59065e-20
    Average internal energy         = 1.04985e-20
    Average total energy            = 2.6405e-20

ExecutionTime = 225.66 s  ClockTime = 228 s  Iterations: 72/600  Projected time to finish: 27.5807 min
Time = 0.000438

    Collisions                      = 8632348
    Acceptance rate                 = 0.495372

Cloud name: dsmc
    Number of dsmc particles        = 81998
    Number of molecules             = 1.63996e+24
    Mass in system                  = 0.0762581
    Average linear momentum         = (1.11428e-24 4.31891e-26 7.55131e-28)
   |Average linear momentum|        = 1.11511e-24
    Average linear kinetic energy   = 1.59037e-20
    Average internal energy         = 1.05013e-20
    Average total energy            = 2.6405e-20

ExecutionTime = 228.96 s  ClockTime = 231 s  Iterations: 73/600  Projected time to finish: 27.5484 min
Time = 0.000444

    Collisions                      = 8627797
    Acceptance rate                 = 0.495088

Cloud name: dsmc
    Number of dsmc particles        = 81998
    Number of molecules             = 1.63996e+24
    Mass in system                  = 0.0762581
    Average linear momentum         = (1.13019e-24 4.31891e-26 7.55131e-28)
   |Average linear momentum|        = 1.13102e-24
    Average linear kinetic energy   = 1.59625e-20
    Average internal energy         = 1.04425e-20
    Average total energy            = 2.6405e-20

ExecutionTime = 232.05 s  ClockTime = 234 s  Iterations: 74/600  Projected time to finish: 27.4906 min
Time = 0.00045

    Collisions                      = 8632872
    Acceptance rate                 = 0.495439

Cloud name: dsmc
    Number of dsmc particles        = 81998
    Number of molecules             = 1.63996e+24
    Mass in system                  = 0.0762581
    Average linear momentum         = (1.14689e-24 4.31891e-26 7.55131e-28)
   |Average linear momentum|        = 1.14771e-24
    Average linear kinetic energy   = 1.5921e-20
    Average internal energy         = 1.0484e-20
    Average total energy            = 2.6405e-20

ExecutionTime = 235.17 s  ClockTime = 237 s  Iterations: 75/600  Projected time to finish: 27.4365 min
Time = 0.000456

    Collisions                      = 8632007
    Acceptance rate                 = 0.495494

Cloud name: dsmc
    Number of dsmc particles        = 81998
    Number of molecules             = 1.63996e+24
    Mass in system                  = 0.0762581
    Average linear momentum         = (1.15907e-24 4.31891e-26 7.55131e-28)
   |Average linear momentum|        = 1.15987e-24
    Average linear kinetic energy   = 1.58694e-20
    Average internal energy         = 1.05356e-20
    Average total energy            = 2.6405e-20

ExecutionTime = 238.27 s  ClockTime = 240 s  Iterations: 76/600  Projected time to finish: 27.3801 min
Time = 0.000462

    Collisions                      = 8627391
    Acceptance rate                 = 0.494897

Cloud name: dsmc
    Number of dsmc particles        = 81998
    Number of molecules             = 1.63996e+24
    Mass in system                  = 0.0762581
    Average linear momentum         = (1.16636e-24 4.31891e-26 7.55131e-28)
   |Average linear momentum|        = 1.16716e-24
    Average linear kinetic energy   = 1.59398e-20
    Average internal energy         = 1.04652e-20
    Average total energy            = 2.6405e-20

ExecutionTime = 241.53 s  ClockTime = 243 s  Iterations: 77/600  Projected time to finish: 27.342 min
Time = 0.000468

    Collisions                      = 8624940
    Acceptance rate                 = 0.494555

Cloud name: dsmc
    Number of dsmc particles        = 81998
    Number of molecules             = 1.63996e+24
    Mass in system                  = 0.0762581
    Average linear momentum         = (1.18588e-24 4.31891e-26 7.55131e-28)
   |Average linear momentum|        = 1.18667e-24
    Average linear kinetic energy   = 1.58943e-20
    Average internal energy         = 1.05107e-20
    Average total energy            = 2.6405e-20

ExecutionTime = 244.67 s  ClockTime = 247 s  Iterations: 78/600  Projected time to finish: 27.2901 min
Time = 0.000474

    Collisions                      = 8627320
    Acceptance rate                 = 0.494693

Cloud name: dsmc
    Number of dsmc particles        = 81998
    Number of molecules             = 1.63996e+24
    Mass in system                  = 0.0762581
    Average linear momentum         = (1.1983e-24 4.31891e-26 7.55131e-28)
   |Average linear momentum|        = 1.19908e-24
    Average linear kinetic energy   = 1.58961e-20
    Average internal energy         = 1.05089e-20
    Average total energy            = 2.6405e-20

ExecutionTime = 248.07 s  ClockTime = 250 s  Iterations: 79/600  Projected time to finish: 27.2668 min
Time = 0.00048

    Collisions                      = 8626860
    Acceptance rate                 = 0.494787

Cloud name: dsmc
    Number of dsmc particles        = 81998
    Number of molecules             = 1.63996e+24
    Mass in system                  = 0.0762581
    Average linear momentum         = (1.21039e-24 4.31891e-26 7.55131e-28)
   |Average linear momentum|        = 1.21116e-24
    Average linear kinetic energy   = 1.59452e-20
    Average internal energy         = 1.04598e-20
    Average total energy            = 2.6405e-20

ExecutionTime = 251.16 s  ClockTime = 253 s  Iterations: 80/600  Projected time to finish: 27.209 min
Time = 0.000486

    Collisions                      = 8623871
    Acceptance rate                 = 0.494711

Cloud name: dsmc
    Number of dsmc particles        = 81998
    Number of molecules             = 1.63996e+24
    Mass in system                  = 0.0762581
    Average linear momentum         = (1.2309e-24 4.31891e-26 7.55131e-28)
   |Average linear momentum|        = 1.23165e-24
    Average linear kinetic energy   = 1.59383e-20
    Average internal energy         = 1.04667e-20
    Average total energy            = 2.6405e-20

ExecutionTime = 254.39 s  ClockTime = 256 s  Iterations: 81/600  Projected time to finish: 27.1663 min
Time = 0.000492

    Collisions                      = 8620955
    Acceptance rate                 = 0.494448

Cloud name: dsmc
    Number of dsmc particles        = 81998
    Number of molecules             = 1.63996e+24
    Mass in system                  = 0.0762581
    Average linear momentum         = (1.24366e-24 4.31891e-26 7.55131e-28)
   |Average linear momentum|        = 1.24441e-24
    Average linear kinetic energy   = 1.5902e-20
    Average internal energy         = 1.0503e-20
    Average total energy            = 2.6405e-20

ExecutionTime = 257.44 s  ClockTime = 259 s  Iterations: 82/600  Projected time to finish: 27.1045 min
Time = 0.000498

    Collisions                      = 8619756
    Acceptance rate                 = 0.494448

Cloud name: dsmc
    Number of dsmc particles        = 81998
    Number of molecules             = 1.63996e+24
    Mass in system                  = 0.0762581
    Average linear momentum         = (1.25082e-24 4.31891e-26 7.55131e-28)
   |Average linear momentum|        = 1.25156e-24
    Average linear kinetic energy   = 1.59057e-20
    Average internal energy         = 1.04994e-20
    Average total energy            = 2.6405e-20

ExecutionTime = 260.66 s  ClockTime = 263 s  Iterations: 83/600  Projected time to finish: 27.0605 min
Time = 0.000504

    Collisions                      = 8614900
    Acceptance rate                 = 0.494319

Cloud name: dsmc
    Number of dsmc particles        = 81998
    Number of molecules             = 1.63996e+24
    Mass in system                  = 0.0762581
    Average linear momentum         = (1.26248e-24 4.31891e-26 7.55131e-28)
   |Average linear momentum|        = 1.26322e-24
    Average linear kinetic energy   = 1.5933e-20
    Average internal energy         = 1.04721e-20
    Average total energy            = 2.6405e-20

ExecutionTime = 263.99 s  ClockTime = 266 s  Iterations: 84/600  Projected time to finish: 27.0275 min
Time = 0.00051

    Collisions                      = 8616985
    Acceptance rate                 = 0.494549

Cloud name: dsmc
    Number of dsmc particles        = 81998
    Number of molecules             = 1.63996e+24
    Mass in system                  = 0.0762581
    Average linear momentum         = (1.2718e-24 4.31891e-26 7.55131e-28)
   |Average linear momentum|        = 1.27253e-24
    Average linear kinetic energy   = 1.59805e-20
    Average internal energy         = 1.04245e-20
    Average total energy            = 2.6405e-20

ExecutionTime = 267.18 s  ClockTime = 269 s  Iterations: 85/600  Projected time to finish: 26.9799 min
Time = 0.000516

    Collisions                      = 8607185
    Acceptance rate                 = 0.494002

Cloud name: dsmc
    Number of dsmc particles        = 81998
    Number of molecules             = 1.63996e+24
    Mass in system                  = 0.0762581
    Average linear momentum         = (1.29444e-24 4.31891e-26 7.55131e-28)
   |Average linear momentum|        = 1.29516e-24
    Average linear kinetic energy   = 1.59508e-20
    Average internal energy         = 1.04542e-20
    Average total energy            = 2.6405e-20

ExecutionTime = 270.62 s  ClockTime = 273 s  Iterations: 86/600  Projected time to finish: 26.9571 min
Time = 0.000522

    Collisions                      = 8612542
    Acceptance rate                 = 0.494138

Cloud name: dsmc
    Number of dsmc particles        = 81998
    Number of molecules             = 1.63996e+24
    Mass in system                  = 0.0762581
    Average linear momentum         = (1.30577e-24 4.31891e-26 7.55131e-28)
   |Average linear momentum|        = 1.30648e-24
    Average linear kinetic energy   = 1.59551e-20
    Average internal energy         = 1.04499e-20
    Average total energy            = 2.6405e-20

ExecutionTime = 273.78 s  ClockTime = 276 s  Iterations: 87/600  Projected time to finish: 26.906 min
Time = 0.000528

    Collisions                      = 8611647
    Acceptance rate                 = 0.494352

Cloud name: dsmc
    Number of dsmc particles        = 81998
    Number of molecules             = 1.63996e+24
    Mass in system                  = 0.0762581
    Average linear momentum         = (1.31719e-24 4.31891e-26 7.55131e-28)
   |Average linear momentum|        = 1.3179e-24
    Average linear kinetic energy   = 1.5904e-20
    Average internal energy         = 1.05011e-20
    Average total energy            = 2.6405e-20

ExecutionTime = 277.06 s  ClockTime = 279 s  Iterations: 88/600  Projected time to finish: 26.8664 min
Time = 0.000534

    Collisions                      = 8605396
    Acceptance rate                 = 0.494201

Cloud name: dsmc
    Number of dsmc particles        = 81998
    Number of molecules             = 1.63996e+24
    Mass in system                  = 0.0762581
    Average linear momentum         = (1.3319e-24 4.31891e-26 7.55131e-28)
   |Average linear momentum|        = 1.3326e-24
    Average linear kinetic energy   = 1.58885e-20
    Average internal energy         = 1.05165e-20
    Average total energy            = 2.6405e-20

ExecutionTime = 280.2 s  ClockTime = 282 s  Iterations: 89/600  Projected time to finish: 26.8131 min
Time = 0.00054

    Collisions                      = 8602356
    Acceptance rate                 = 0.493894

Cloud name: dsmc
    Number of dsmc particles        = 81998
    Number of molecules             = 1.63996e+24
    Mass in system                  = 0.0762581
    Average linear momentum         = (1.35383e-24 4.31891e-26 7.55131e-28)
   |Average linear momentum|        = 1.35452e-24
    Average linear kinetic energy   = 1.58906e-20
    Average internal energy         = 1.05145e-20
    Average total energy            = 2.6405e-20

ExecutionTime = 283.51 s  ClockTime = 286 s  Iterations: 90/600  Projected time to finish: 26.7759 min
Time = 0.000546

    Collisions                      = 8594614
    Acceptance rate                 = 0.493589

Cloud name: dsmc
    Number of dsmc particles        = 81998
    Number of molecules             = 1.63996e+24
    Mass in system                  = 0.0762581
    Average linear momentum         = (1.36166e-24 4.31891e-26 7.55131e-28)
   |Average linear momentum|        = 1.36235e-24
    Average linear kinetic energy   = 1.59319e-20
    Average internal energy         = 1.04732e-20
    Average total energy            = 2.6405e-20

ExecutionTime = 286.78 s  ClockTime = 289 s  Iterations: 91/600  Projected time to finish: 26.7346 min
Time = 0.000552

    Collisions                      = 8591703
    Acceptance rate                 = 0.493492

Cloud name: dsmc
    Number of dsmc particles        = 81998
    Number of molecules             = 1.63996e+24
    Mass in system                  = 0.0762581
    Average linear momentum         = (1.38481e-24 4.31891e-26 7.55131e-28)
   |Average linear momentum|        = 1.38548e-24
    Average linear kinetic energy   = 1.59035e-20
    Average internal energy         = 1.05015e-20
    Average total energy            = 2.6405e-20

ExecutionTime = 290.03 s  ClockTime = 292 s  Iterations: 92/600  Projected time to finish: 26.6912 min
Time = 0.000558

    Collisions                      = 8591894
    Acceptance rate                 = 0.493445

Cloud name: dsmc
    Number of dsmc particles        = 81998
    Number of molecules             = 1.63996e+24
    Mass in system                  = 0.0762581
    Average linear momentum         = (1.40052e-24 4.31891e-26 7.55131e-28)
   |Average linear momentum|        = 1.40118e-24
    Average linear kinetic energy   = 1.59507e-20
    Average internal energy         = 1.04543e-20
    Average total energy            = 2.6405e-20

ExecutionTime = 293.25 s  ClockTime = 295 s  Iterations: 93/600  Projected time to finish: 26.6448 min
Time = 0.000564

    Collisions                      = 8593022
    Acceptance rate                 = 0.493571

Cloud name: dsmc
    Number of dsmc particles        = 81998
    Number of molecules             = 1.63996e+24
    Mass in system                  = 0.0762581
    Average linear momentum         = (1.41532e-24 4.31891e-26 7.55131e-28)
   |Average linear momentum|        = 1.41598e-24
    Average linear kinetic energy   = 1.59249e-20
    Average internal energy         = 1.04801e-20
    Average total energy            = 2.6405e-20

ExecutionTime = 296.62 s  ClockTime = 299 s  Iterations: 94/600  Projected time to finish: 26.6117 min
Time = 0.00057

    Collisions                      = 8588021
    Acceptance rate                 = 0.493375

Cloud name: dsmc
    Number of dsmc particles        = 81998
    Number of molecules             = 1.63996e+24
    Mass in system                  = 0.0762581
    Average linear momentum         = (1.42664e-24 4.31891e-26 7.55131e-28)
   |Average linear momentum|        = 1.42729e-24
    Average linear kinetic energy   = 1.60031e-20
    Average internal energy         = 1.04019e-20
    Average total energy            = 2.6405e-20

ExecutionTime = 299.9 s  ClockTime = 302 s  Iterations: 95/600  Projected time to finish: 26.5701 min
Time = 0.000576

    Collisions                      = 8587430
    Acceptance rate                 = 0.493217

Cloud name: dsmc
    Number of dsmc particles        = 81998
    Number of molecules             = 1.63996e+24
    Mass in system                  = 0.0762581
    Average linear momentum         = (1.43535e-24 4.31891e-26 7.55131e-28)
   |Average linear momentum|        = 1.436e-24
    Average linear kinetic energy   = 1.59502e-20
    Average internal energy         = 1.04548e-20
    Average total energy            = 2.6405e-20

ExecutionTime = 302.95 s  ClockTime = 305 s  Iterations: 96/600  Projected time to finish: 26.5081 min
Time = 0.000582

    Collisions                      = 8583552
    Acceptance rate                 = 0.493074

Cloud name: dsmc
    Number of dsmc particles        = 81998
    Number of molecules             = 1.63996e+24
    Mass in system                  = 0.0762581
    Average linear momentum         = (1.44503e-24 4.31891e-26 7.55131e-28)
   |Average linear momentum|        = 1.44567e-24
    Average linear kinetic energy   = 1.59419e-20
    Average internal energy         = 1.04631e-20
    Average total energy            = 2.6405e-20

ExecutionTime = 306.22 s  ClockTime = 308 s  Iterations: 97/600  Projected time to finish: 26.4654 min
Time = 0.000588

    Collisions                      = 8584114
    Acceptance rate                 = 0.493051

Cloud name: dsmc
    Number of dsmc particles        = 81998
    Number of molecules             = 1.63996e+24
    Mass in system                  = 0.0762581
    Average linear momentum         = (1.45801e-24 4.31891e-26 7.55131e-28)
   |Average linear momentum|        = 1.45865e-24
    Average linear kinetic energy   = 1.59524e-20
    Average internal energy         = 1.04526e-20
    Average total energy            = 2.6405e-20

ExecutionTime = 309.36 s  ClockTime = 312 s  Iterations: 98/600  Projected time to finish: 26.4113 min
Time = 0.000594

    Collisions                      = 8582601
    Acceptance rate                 = 0.493133

Cloud name: dsmc
    Number of dsmc particles        = 81998
    Number of molecules             = 1.63996e+24
    Mass in system                  = 0.0762581
    Average linear momentum         = (1.47604e-24 4.31891e-26 7.55131e-28)
   |Average linear momentum|        = 1.47667e-24
    Average linear kinetic energy   = 1.59789e-20
    Average internal energy         = 1.04261e-20
    Average total energy            = 2.6405e-20

ExecutionTime = 312.53 s  ClockTime = 315 s  Iterations: 99/600  Projected time to finish: 26.3599 min
Time = 0.0006

    Collisions                      = 8575915
    Acceptance rate                 = 0.492843

Cloud name: dsmc
    Number of dsmc particles        = 81998
    Number of molecules             = 1.63996e+24
    Mass in system                  = 0.0762581
    Average linear momentum         = (1.48487e-24 4.31891e-26 7.55131e-28)
   |Average linear momentum|        = 1.4855e-24
    Average linear kinetic energy   = 1.60064e-20
    Average internal energy         = 1.03986e-20
    Average total energy            = 2.6405e-20

ExecutionTime = 315.54 s  ClockTime = 318 s  Iterations: 100/600  Projected time to finish: 26.295 min
Time = 0.000606

    Collisions                      = 8572422
    Acceptance rate                 = 0.492899

Cloud name: dsmc
    Number of dsmc particles        = 81998
    Number of molecules             = 1.63996e+24
    Mass in system                  = 0.0762581
    Average linear momentum         = (1.5034e-24 4.31891e-26 7.55131e-28)
   |Average linear momentum|        = 1.50402e-24
    Average linear kinetic energy   = 1.59856e-20
    Average internal energy         = 1.04194e-20
    Average total energy            = 2.6405e-20

ExecutionTime = 318.84 s  ClockTime = 321 s  Iterations: 101/600  Projected time to finish: 26.2543 min
Time = 0.000612

    Collisions                      = 8574514
    Acceptance rate                 = 0.492928

Cloud name: dsmc
    Number of dsmc particles        = 81998
    Number of molecules             = 1.63996e+24
    Mass in system                  = 0.0762581
    Average linear momentum         = (1.52513e-24 4.31891e-26 7.55131e-28)
   |Average linear momentum|        = 1.52574e-24
    Average linear kinetic energy   = 1.59297e-20
    Average internal energy         = 1.04753e-20
    Average total energy            = 2.6405e-20

ExecutionTime = 322.06 s  ClockTime = 324 s  Iterations: 102/600  Projected time to finish: 26.2068 min
Time = 0.000618

    Collisions                      = 8569998
    Acceptance rate                 = 0.492753

Cloud name: dsmc
    Number of dsmc particles        = 81998
    Number of molecules             = 1.63996e+24
    Mass in system                  = 0.0762581
    Average linear momentum         = (1.53975e-24 4.31891e-26 7.55131e-28)
   |Average linear momentum|        = 1.54036e-24
    Average linear kinetic energy   = 1.59827e-20
    Average internal energy         = 1.04223e-20
    Average total energy            = 2.6405e-20

ExecutionTime = 325.23 s  ClockTime = 327 s  Iterations: 103/600  Projected time to finish: 26.1552 min
Time = 0.000624

    Collisions                      = 8570240
    Acceptance rate                 = 0.492621

Cloud name: dsmc
    Number of dsmc particles        = 81998
    Number of molecules             = 1.63996e+24
    Mass in system                  = 0.0762581
    Average linear momentum         = (1.5534e-24 4.31891e-26 7.55131e-28)
   |Average linear momentum|        = 1.554e-24
    Average linear kinetic energy   = 1.59446e-20
    Average internal energy         = 1.04605e-20
    Average total energy            = 2.6405e-20

ExecutionTime = 328.43 s  ClockTime = 331 s  Iterations: 104/600  Projected time to finish: 26.106 min
Time = 0.00063

    Collisions                      = 8566351
    Acceptance rate                 = 0.492458

Cloud name: dsmc
    Number of dsmc particles        = 81998
    Number of molecules             = 1.63996e+24
    Mass in system                  = 0.0762581
    Average linear momentum         = (1.57099e-24 4.31891e-26 7.55131e-28)
   |Average linear momentum|        = 1.57159e-24
    Average linear kinetic energy   = 1.59339e-20
    Average internal energy         = 1.04711e-20
    Average total energy            = 2.6405e-20

ExecutionTime = 331.75 s  ClockTime = 334 s  Iterations: 105/600  Projected time to finish: 26.0661 min
Time = 0.000636

    Collisions                      = 8567840
    Acceptance rate                 = 0.492516

Cloud name: dsmc
    Number of dsmc particles        = 81998
    Number of molecules             = 1.63996e+24
    Mass in system                  = 0.0762581
    Average linear momentum         = (1.58815e-24 4.31891e-26 7.55131e-28)
   |Average linear momentum|        = 1.58874e-24
    Average linear kinetic energy   = 1.59539e-20
    Average internal energy         = 1.04511e-20
    Average total energy            = 2.6405e-20

ExecutionTime = 334.79 s  ClockTime = 337 s  Iterations: 106/600  Projected time to finish: 26.0041 min
Time = 0.000642

    Collisions                      = 8564884
    Acceptance rate                 = 0.492399

Cloud name: dsmc
    Number of dsmc particles        = 81998
    Number of molecules             = 1.63996e+24
    Mass in system                  = 0.0762581
    Average linear momentum         = (1.60625e-24 4.31891e-26 7.55131e-28)
   |Average linear momentum|        = 1.60683e-24
    Average linear kinetic energy   = 1.59429e-20
    Average internal energy         = 1.04621e-20
    Average total energy            = 2.6405e-20

ExecutionTime = 337.98 s  ClockTime = 340 s  Iterations: 107/600  Projected time to finish: 25.9539 min
Time = 0.000648

    Collisions                      = 8561828
    Acceptance rate                 = 0.492447

Cloud name: dsmc
    Number of dsmc particles        = 81998
    Number of molecules             = 1.63996e+24
    Mass in system                  = 0.0762581
    Average linear momentum         = (1.61854e-24 4.31891e-26 7.55131e-28)
   |Average linear momentum|        = 1.61912e-24
    Average linear kinetic energy   = 1.59683e-20
    Average internal energy         = 1.04367e-20
    Average total energy            = 2.6405e-20

ExecutionTime = 341.25 s  ClockTime = 343 s  Iterations: 108/600  Projected time to finish: 25.9097 min
Time = 0.000654

    Collisions                      = 8555463
    Acceptance rate                 = 0.492251

Cloud name: dsmc
    Number of dsmc particles        = 81998
    Number of molecules             = 1.63996e+24
    Mass in system                  = 0.0762581
    Average linear momentum         = (1.63213e-24 4.31891e-26 7.55131e-28)
   |Average linear momentum|        = 1.6327e-24
    Average linear kinetic energy   = 1.59548e-20
    Average internal energy         = 1.04502e-20
    Average total energy            = 2.6405e-20

ExecutionTime = 344.36 s  ClockTime = 347 s  Iterations: 109/600  Projected time to finish: 25.8533 min
Time = 0.00066

    Collisions                      = 8551215
    Acceptance rate                 = 0.492126

Cloud name: dsmc
    Number of dsmc particles        = 81998
    Number of molecules             = 1.63996e+24
    Mass in system                  = 0.0762581
    Average linear momentum         = (1.64931e-24 4.31891e-26 7.55131e-28)
   |Average linear momentum|        = 1.64988e-24
    Average linear kinetic energy   = 1.59858e-20
    Average internal energy         = 1.04192e-20
    Average total energy            = 2.6405e-20

ExecutionTime = 347.47 s  ClockTime = 350 s  Iterations: 110/600  Projected time to finish: 25.797 min
Time = 0.000666

    Collisions                      = 8554926
    Acceptance rate                 = 0.492331

Cloud name: dsmc
    Number of dsmc particles        = 81998
    Number of molecules             = 1.63996e+24
    Mass in system                  = 0.0762581
    Average linear momentum         = (1.66481e-24 4.31891e-26 7.55131e-28)
   |Average linear momentum|        = 1.66537e-24
    Average linear kinetic energy   = 1.59167e-20
    Average internal energy         = 1.04883e-20
    Average total energy            = 2.6405e-20

ExecutionTime = 350.84 s  ClockTime = 353 s  Iterations: 111/600  Projected time to finish: 25.7599 min
Time = 0.000672

    Collisions                      = 8556118
    Acceptance rate                 = 0.492309

Cloud name: dsmc
    Number of dsmc particles        = 81998
    Number of molecules             = 1.63996e+24
    Mass in system                  = 0.0762581
    Average linear momentum         = (1.68164e-24 4.31891e-26 7.55131e-28)
   |Average linear momentum|        = 1.6822e-24
    Average linear kinetic energy   = 1.59467e-20
    Average internal energy         = 1.04583e-20
    Average total energy            = 2.6405e-20

ExecutionTime = 354.09 s  ClockTime = 356 s  Iterations: 112/600  Projected time to finish: 25.7137 min
Time = 0.000678

    Collisions                      = 8547023
    Acceptance rate                 = 0.49221

Cloud name: dsmc
    Number of dsmc particles        = 81998
    Number of molecules             = 1.63996e+24
    Mass in system                  = 0.0762581
    Average linear momentum         = (1.70202e-24 4.31891e-26 7.55131e-28)
   |Average linear momentum|        = 1.70257e-24
    Average linear kinetic energy   = 1.58966e-20
    Average internal energy         = 1.05084e-20
    Average total energy            = 2.6405e-20

ExecutionTime = 357.22 s  ClockTime = 359 s  Iterations: 113/600  Projected time to finish: 25.6587 min
Time = 0.000684

    Collisions                      = 8546621
    Acceptance rate                 = 0.492165

Cloud name: dsmc
    Number of dsmc particles        = 81998
    Number of molecules             = 1.63996e+24
    Mass in system                  = 0.0762581
    Average linear momentum         = (1.71811e-24 4.31891e-26 7.55131e-28)
   |Average linear momentum|        = 1.71865e-24
    Average linear kinetic energy   = 1.59949e-20
    Average internal energy         = 1.04102e-20
    Average total energy            = 2.6405e-20

ExecutionTime = 360.37 s  ClockTime = 363 s  Iterations: 114/600  Projected time to finish: 25.6052 min
Time = 0.00069

    Collisions                      = 8545877
    Acceptance rate                 = 0.492276

Cloud name: dsmc
    Number of dsmc particles        = 81998
    Number of molecules             = 1.63996e+24
    Mass in system                  = 0.0762581
    Average linear momentum         = (1.72986e-24 4.31891e-26 7.55131e-28)
   |Average linear momentum|        = 1.7304e-24
    Average linear kinetic energy   = 1.59517e-20
    Average internal energy         = 1.04533e-20
    Average total energy            = 2.6405e-20

ExecutionTime = 363.51 s  ClockTime = 366 s  Iterations: 115/600  Projected time to finish: 25.5511 min
Time = 0.000696

    Collisions                      = 8538527
    Acceptance rate                 = 0.492047

Cloud name: dsmc
    Number of dsmc particles        = 81998
    Number of molecules             = 1.63996e+24
    Mass in system                  = 0.0762581
    Average linear momentum         = (1.74355e-24 4.31891e-26 7.55131e-28)
   |Average linear momentum|        = 1.74408e-24
    Average linear kinetic energy   = 1.60164e-20
    Average internal energy         = 1.03886e-20
    Average total energy            = 2.6405e-20

ExecutionTime = 366.78 s  ClockTime = 369 s  Iterations: 116/600  Projected time to finish: 25.506 min
Time = 0.000702

    Collisions                      = 8540078
    Acceptance rate                 = 0.492135

Cloud name: dsmc
    Number of dsmc particles        = 81998
    Number of molecules             = 1.63996e+24
    Mass in system                  = 0.0762581
    Average linear momentum         = (1.76479e-24 4.31891e-26 7.55131e-28)
   |Average linear momentum|        = 1.76532e-24
    Average linear kinetic energy   = 1.59418e-20
    Average internal energy         = 1.04632e-20
    Average total energy            = 2.6405e-20

ExecutionTime = 369.81 s  ClockTime = 372 s  Iterations: 117/600  Projected time to finish: 25.4442 min
Time = 0.000708

    Collisions                      = 8537785
    Acceptance rate                 = 0.491902

Cloud name: dsmc
    Number of dsmc particles        = 81998
    Number of molecules             = 1.63996e+24
    Mass in system                  = 0.0762581
    Average linear momentum         = (1.77087e-24 4.31891e-26 7.55131e-28)
   |Average linear momentum|        = 1.7714e-24
    Average linear kinetic energy   = 1.59929e-20
    Average internal energy         = 1.04121e-20
    Average total energy            = 2.6405e-20

ExecutionTime = 373 s  ClockTime = 375 s  Iterations: 118/600  Projected time to finish: 25.3935 min
Time = 0.000714

    Collisions                      = 8533103
    Acceptance rate                 = 0.491467

Cloud name: dsmc
    Number of dsmc particles        = 81998
    Number of molecules             = 1.63996e+24
    Mass in system                  = 0.0762581
    Average linear momentum         = (1.79083e-24 4.31891e-26 7.55131e-28)
   |Average linear momentum|        = 1.79135e-24
    Average linear kinetic energy   = 1.59095e-20
    Average internal energy         = 1.04956e-20
    Average total energy            = 2.6405e-20

ExecutionTime = 376.18 s  ClockTime = 379 s  Iterations: 119/600  Projected time to finish: 25.3421 min
Time = 0.00072

    Collisions                      = 8537951
    Acceptance rate                 = 0.491878

Cloud name: dsmc
    Number of dsmc particles        = 81998
    Number of molecules             = 1.63996e+24
    Mass in system                  = 0.0762581
    Average linear momentum         = (1.80433e-24 4.31891e-26 7.55131e-28)
   |Average linear momentum|        = 1.80485e-24
    Average linear kinetic energy   = 1.59936e-20
    Average internal energy         = 1.04114e-20
    Average total energy            = 2.6405e-20

ExecutionTime = 379.77 s  ClockTime = 382 s  Iterations: 120/600  Projected time to finish: 25.318 min
Time = 0.000726

    Collisions                      = 8538082
    Acceptance rate                 = 0.491817

Cloud name: dsmc
[...]
    Average linear momentum         = (8.51771e-24 4.31891e-26 7.55131e-28)
   |Average linear momentum|        = 8.51781e-24
    Average linear kinetic energy   = 1.64984e-20
    Average internal energy         = 9.90665e-21
    Average total energy            = 2.6405e-20

ExecutionTime = 1844.37 s  ClockTime = 1858 s  Iterations: 570/600  Projected time to finish: 1.61787 min
Time = 0.003426

    Collisions                      = 7500055
    Acceptance rate                 = 0.48076

Cloud name: dsmc
    Number of dsmc particles        = 81998
    Number of molecules             = 1.63996e+24
    Mass in system                  = 0.0762581
    Average linear momentum         = (8.53234e-24 4.31891e-26 7.55131e-28)
   |Average linear momentum|        = 8.53245e-24
    Average linear kinetic energy   = 1.65001e-20
    Average internal energy         = 9.90495e-21
    Average total energy            = 2.6405e-20

ExecutionTime = 1847.7 s  ClockTime = 1861 s  Iterations: 571/600  Projected time to finish: 1.56402 min
Time = 0.003432

    Collisions                      = 7493846
    Acceptance rate                 = 0.480569

Cloud name: dsmc
    Number of dsmc particles        = 81998
    Number of molecules             = 1.63996e+24
    Mass in system                  = 0.0762581
    Average linear momentum         = (8.54843e-24 4.31891e-26 7.55131e-28)
   |Average linear momentum|        = 8.54854e-24
    Average linear kinetic energy   = 1.64294e-20
    Average internal energy         = 9.97558e-21
    Average total energy            = 2.6405e-20

ExecutionTime = 1851.2 s  ClockTime = 1865 s  Iterations: 572/600  Projected time to finish: 1.5103 min
Time = 0.003438

    Collisions                      = 7491873
    Acceptance rate                 = 0.480687

Cloud name: dsmc
    Number of dsmc particles        = 81998
    Number of molecules             = 1.63996e+24
    Mass in system                  = 0.0762581
    Average linear momentum         = (8.55948e-24 4.31891e-26 7.55131e-28)
   |Average linear momentum|        = 8.55959e-24
    Average linear kinetic energy   = 1.64861e-20
    Average internal energy         = 9.91893e-21
    Average total energy            = 2.6405e-20

ExecutionTime = 1854.4 s  ClockTime = 1868 s  Iterations: 573/600  Projected time to finish: 1.45634 min
Time = 0.003444

    Collisions                      = 7489773
    Acceptance rate                 = 0.480749

Cloud name: dsmc
    Number of dsmc particles        = 81998
    Number of molecules             = 1.63996e+24
    Mass in system                  = 0.0762581
    Average linear momentum         = (8.57453e-24 4.31891e-26 7.55131e-28)
   |Average linear momentum|        = 8.57464e-24
    Average linear kinetic energy   = 1.64305e-20
    Average internal energy         = 9.9745e-21
    Average total energy            = 2.6405e-20

ExecutionTime = 1857.64 s  ClockTime = 1871 s  Iterations: 574/600  Projected time to finish: 1.4024 min
Time = 0.00345

    Collisions                      = 7485622
    Acceptance rate                 = 0.480567

Cloud name: dsmc
    Number of dsmc particles        = 81998
    Number of molecules             = 1.63996e+24
    Mass in system                  = 0.0762581
    Average linear momentum         = (8.58654e-24 4.31891e-26 7.55131e-28)
   |Average linear momentum|        = 8.58665e-24
    Average linear kinetic energy   = 1.64849e-20
    Average internal energy         = 9.92013e-21
    Average total energy            = 2.6405e-20

ExecutionTime = 1860.8 s  ClockTime = 1874 s  Iterations: 575/600  Projected time to finish: 1.34841 min
Time = 0.003456

    Collisions                      = 7487138
    Acceptance rate                 = 0.480764

Cloud name: dsmc
    Number of dsmc particles        = 81998
    Number of molecules             = 1.63996e+24
    Mass in system                  = 0.0762581
    Average linear momentum         = (8.60039e-24 4.31891e-26 7.55131e-28)
   |Average linear momentum|        = 8.6005e-24
    Average linear kinetic energy   = 1.64318e-20
    Average internal energy         = 9.97318e-21
    Average total energy            = 2.6405e-20

ExecutionTime = 1863.87 s  ClockTime = 1877 s  Iterations: 576/600  Projected time to finish: 1.29435 min
Time = 0.003462

    Collisions                      = 7484139
    Acceptance rate                 = 0.48064

Cloud name: dsmc
    Number of dsmc particles        = 81998
    Number of molecules             = 1.63996e+24
    Mass in system                  = 0.0762581
    Average linear momentum         = (8.61632e-24 4.31891e-26 7.55131e-28)
   |Average linear momentum|        = 8.61642e-24
    Average linear kinetic energy   = 1.65095e-20
    Average internal energy         = 9.89548e-21
    Average total energy            = 2.6405e-20

ExecutionTime = 1867.08 s  ClockTime = 1881 s  Iterations: 577/600  Projected time to finish: 1.24041 min
Time = 0.003468

    Collisions                      = 7480938
    Acceptance rate                 = 0.480638

Cloud name: dsmc
    Number of dsmc particles        = 81998
    Number of molecules             = 1.63996e+24
    Mass in system                  = 0.0762581
    Average linear momentum         = (8.62983e-24 4.31891e-26 7.55131e-28)
   |Average linear momentum|        = 8.62994e-24
    Average linear kinetic energy   = 1.6464e-20
    Average internal energy         = 9.94103e-21
    Average total energy            = 2.6405e-20

ExecutionTime = 1870.11 s  ClockTime = 1884 s  Iterations: 578/600  Projected time to finish: 1.18634 min
Time = 0.003474

    Collisions                      = 7477547
    Acceptance rate                 = 0.480736

Cloud name: dsmc
    Number of dsmc particles        = 81998
    Number of molecules             = 1.63996e+24
    Mass in system                  = 0.0762581
    Average linear momentum         = (8.63975e-24 4.31891e-26 7.55131e-28)
   |Average linear momentum|        = 8.63986e-24
    Average linear kinetic energy   = 1.64297e-20
    Average internal energy         = 9.97532e-21
    Average total energy            = 2.6405e-20

ExecutionTime = 1873.39 s  ClockTime = 1887 s  Iterations: 579/600  Projected time to finish: 1.13245 min
Time = 0.00348

    Collisions                      = 7470243
    Acceptance rate                 = 0.480449

Cloud name: dsmc
    Number of dsmc particles        = 81998
    Number of molecules             = 1.63996e+24
    Mass in system                  = 0.0762581
    Average linear momentum         = (8.64457e-24 4.31891e-26 7.55131e-28)
   |Average linear momentum|        = 8.64468e-24
    Average linear kinetic energy   = 1.64842e-20
    Average internal energy         = 9.92085e-21
    Average total energy            = 2.6405e-20

ExecutionTime = 1877.08 s  ClockTime = 1891 s  Iterations: 580/600  Projected time to finish: 1.07878 min
Time = 0.003486

    Collisions                      = 7479019
    Acceptance rate                 = 0.481038

Cloud name: dsmc
    Number of dsmc particles        = 81998
    Number of molecules             = 1.63996e+24
    Mass in system                  = 0.0762581
    Average linear momentum         = (8.66368e-24 4.31891e-26 7.55131e-28)
   |Average linear momentum|        = 8.66379e-24
    Average linear kinetic energy   = 1.64406e-20
    Average internal energy         = 9.96441e-21
    Average total energy            = 2.6405e-20

ExecutionTime = 1880.24 s  ClockTime = 1895 s  Iterations: 581/600  Projected time to finish: 1.0248 min
Time = 0.003492

    Collisions                      = 7477827
    Acceptance rate                 = 0.48086

Cloud name: dsmc
    Number of dsmc particles        = 81998
    Number of molecules             = 1.63996e+24
    Mass in system                  = 0.0762581
    Average linear momentum         = (8.67502e-24 4.31891e-26 7.55131e-28)
   |Average linear momentum|        = 8.67513e-24
    Average linear kinetic energy   = 1.64478e-20
    Average internal energy         = 9.95718e-21
    Average total energy            = 2.6405e-20

ExecutionTime = 1883.34 s  ClockTime = 1898 s  Iterations: 582/600  Projected time to finish: 0.970794 min
Time = 0.003498

    Collisions                      = 7470229
    Acceptance rate                 = 0.48085

Cloud name: dsmc
    Number of dsmc particles        = 81998
    Number of molecules             = 1.63996e+24
    Mass in system                  = 0.0762581
    Average linear momentum         = (8.68878e-24 4.31891e-26 7.55131e-28)
   |Average linear momentum|        = 8.68889e-24
    Average linear kinetic energy   = 1.64562e-20
    Average internal energy         = 9.94885e-21
    Average total energy            = 2.6405e-20

ExecutionTime = 1886.52 s  ClockTime = 1901 s  Iterations: 583/600  Projected time to finish: 0.916834 min
Time = 0.003504

    Collisions                      = 7468382
    Acceptance rate                 = 0.480846

Cloud name: dsmc
    Number of dsmc particles        = 81998
    Number of molecules             = 1.63996e+24
    Mass in system                  = 0.0762581
    Average linear momentum         = (8.70122e-24 4.31891e-26 7.55131e-28)
   |Average linear momentum|        = 8.70133e-24
    Average linear kinetic energy   = 1.64467e-20
    Average internal energy         = 9.95837e-21
    Average total energy            = 2.6405e-20

ExecutionTime = 1890.06 s  ClockTime = 1905 s  Iterations: 584/600  Projected time to finish: 0.863041 min
Time = 0.00351

    Collisions                      = 7460990
    Acceptance rate                 = 0.480628

Cloud name: dsmc
    Number of dsmc particles        = 81998
    Number of molecules             = 1.63996e+24
    Mass in system                  = 0.0762581
    Average linear momentum         = (8.71135e-24 4.31891e-26 7.55131e-28)
   |Average linear momentum|        = 8.71145e-24
    Average linear kinetic energy   = 1.64306e-20
    Average internal energy         = 9.97443e-21
    Average total energy            = 2.6405e-20

ExecutionTime = 1893.88 s  ClockTime = 1909 s  Iterations: 585/600  Projected time to finish: 0.80935 min
Time = 0.003516

    Collisions                      = 7459526
    Acceptance rate                 = 0.480479

Cloud name: dsmc
    Number of dsmc particles        = 81998
    Number of molecules             = 1.63996e+24
    Mass in system                  = 0.0762581
    Average linear momentum         = (8.71919e-24 4.31891e-26 7.55131e-28)
   |Average linear momentum|        = 8.71929e-24
    Average linear kinetic energy   = 1.64804e-20
    Average internal energy         = 9.92462e-21
    Average total energy            = 2.6405e-20

ExecutionTime = 1897.08 s  ClockTime = 1912 s  Iterations: 586/600  Projected time to finish: 0.755379 min
Time = 0.003522

    Collisions                      = 7462502
    Acceptance rate                 = 0.48071

Cloud name: dsmc
    Number of dsmc particles        = 81998
    Number of molecules             = 1.63996e+24
    Mass in system                  = 0.0762581
    Average linear momentum         = (8.73607e-24 4.31891e-26 7.55131e-28)
   |Average linear momentum|        = 8.73618e-24
    Average linear kinetic energy   = 1.64726e-20
    Average internal energy         = 9.9324e-21
    Average total energy            = 2.6405e-20

ExecutionTime = 1900.28 s  ClockTime = 1916 s  Iterations: 587/600  Projected time to finish: 0.701409 min
Time = 0.003528

    Collisions                      = 7460508
    Acceptance rate                 = 0.480693

Cloud name: dsmc
    Number of dsmc particles        = 81998
    Number of molecules             = 1.63996e+24
    Mass in system                  = 0.0762581
    Average linear momentum         = (8.75385e-24 4.31891e-26 7.55131e-28)
   |Average linear momentum|        = 8.75395e-24
    Average linear kinetic energy   = 1.64914e-20
    Average internal energy         = 9.91358e-21
    Average total energy            = 2.6405e-20

ExecutionTime = 1903.82 s  ClockTime = 1919 s  Iterations: 588/600  Projected time to finish: 0.647558 min
Time = 0.003534

    Collisions                      = 7454873
    Acceptance rate                 = 0.480444

Cloud name: dsmc
    Number of dsmc particles        = 81998
    Number of molecules             = 1.63996e+24
    Mass in system                  = 0.0762581
    Average linear momentum         = (8.76738e-24 4.31891e-26 7.55131e-28)
   |Average linear momentum|        = 8.76749e-24
    Average linear kinetic energy   = 1.64527e-20
    Average internal energy         = 9.95235e-21
    Average total energy            = 2.6405e-20

ExecutionTime = 1907.65 s  ClockTime = 1924 s  Iterations: 589/600  Projected time to finish: 0.593779 min
Time = 0.00354

    Collisions                      = 7454335
    Acceptance rate                 = 0.480705

Cloud name: dsmc
    Number of dsmc particles        = 81998
    Number of molecules             = 1.63996e+24
    Mass in system                  = 0.0762581
    Average linear momentum         = (8.78638e-24 4.31891e-26 7.55131e-28)
   |Average linear momentum|        = 8.78649e-24
    Average linear kinetic energy   = 1.64614e-20
    Average internal energy         = 9.94365e-21
    Average total energy            = 2.6405e-20

ExecutionTime = 1911.27 s  ClockTime = 1928 s  Iterations: 590/600  Projected time to finish: 0.539907 min
Time = 0.003546

    Collisions                      = 7451938
    Acceptance rate                 = 0.480552

Cloud name: dsmc
    Number of dsmc particles        = 81998
    Number of molecules             = 1.63996e+24
    Mass in system                  = 0.0762581
    Average linear momentum         = (8.8039e-24 4.31891e-26 7.55131e-28)
   |Average linear momentum|        = 8.804e-24
    Average linear kinetic energy   = 1.64748e-20
    Average internal energy         = 9.93018e-21
    Average total energy            = 2.6405e-20

ExecutionTime = 1914.6 s  ClockTime = 1931 s  Iterations: 591/600  Projected time to finish: 0.485939 min
Time = 0.003552

    Collisions                      = 7451493
    Acceptance rate                 = 0.48057

Cloud name: dsmc
    Number of dsmc particles        = 81998
    Number of molecules             = 1.63996e+24
    Mass in system                  = 0.0762581
    Average linear momentum         = (8.81872e-24 4.31891e-26 7.55131e-28)
   |Average linear momentum|        = 8.81882e-24
    Average linear kinetic energy   = 1.64758e-20
    Average internal energy         = 9.92924e-21
    Average total energy            = 2.6405e-20

ExecutionTime = 1918.01 s  ClockTime = 1934 s  Iterations: 592/600  Projected time to finish: 0.431984 min
Time = 0.003558

    Collisions                      = 7448141
    Acceptance rate                 = 0.480539

Cloud name: dsmc
    Number of dsmc particles        = 81998
    Number of molecules             = 1.63996e+24
    Mass in system                  = 0.0762581
    Average linear momentum         = (8.82791e-24 4.31891e-26 7.55131e-28)
   |Average linear momentum|        = 8.82801e-24
    Average linear kinetic energy   = 1.64338e-20
    Average internal energy         = 9.97118e-21
    Average total energy            = 2.6405e-20

ExecutionTime = 1921.32 s  ClockTime = 1938 s  Iterations: 593/600  Projected time to finish: 0.378 min
Time = 0.003564

    Collisions                      = 7445751
    Acceptance rate                 = 0.480345

Cloud name: dsmc
    Number of dsmc particles        = 81998
    Number of molecules             = 1.63996e+24
    Mass in system                  = 0.0762581
    Average linear momentum         = (8.84886e-24 4.31891e-26 7.55131e-28)
   |Average linear momentum|        = 8.84896e-24
    Average linear kinetic energy   = 1.64661e-20
    Average internal energy         = 9.9389e-21
    Average total energy            = 2.6405e-20

ExecutionTime = 1924.64 s  ClockTime = 1941 s  Iterations: 594/600  Projected time to finish: 0.324013 min
Time = 0.00357

    Collisions                      = 7445817
    Acceptance rate                 = 0.480554

Cloud name: dsmc
    Number of dsmc particles        = 81998
    Number of molecules             = 1.63996e+24
    Mass in system                  = 0.0762581
    Average linear momentum         = (8.86369e-24 4.31891e-26 7.55131e-28)
   |Average linear momentum|        = 8.86379e-24
    Average linear kinetic energy   = 1.64669e-20
    Average internal energy         = 9.93812e-21
    Average total energy            = 2.6405e-20

ExecutionTime = 1927.93 s  ClockTime = 1945 s  Iterations: 595/600  Projected time to finish: 0.270018 min
Time = 0.003576

    Collisions                      = 7438589
    Acceptance rate                 = 0.480522

Cloud name: dsmc
    Number of dsmc particles        = 81998
    Number of molecules             = 1.63996e+24
    Mass in system                  = 0.0762581
    Average linear momentum         = (8.885e-24 4.31891e-26 7.55131e-28)
   |Average linear momentum|        = 8.88511e-24
    Average linear kinetic energy   = 1.64763e-20
    Average internal energy         = 9.92868e-21
    Average total energy            = 2.6405e-20

ExecutionTime = 1931.29 s  ClockTime = 1948 s  Iterations: 596/600  Projected time to finish: 0.216028 min
Time = 0.003582

    Collisions                      = 7435035
    Acceptance rate                 = 0.480479

Cloud name: dsmc
    Number of dsmc particles        = 81998
    Number of molecules             = 1.63996e+24
    Mass in system                  = 0.0762581
    Average linear momentum         = (8.89631e-24 4.31891e-26 7.55131e-28)
   |Average linear momentum|        = 8.89642e-24
    Average linear kinetic energy   = 1.64377e-20
    Average internal energy         = 9.96731e-21
    Average total energy            = 2.6405e-20

ExecutionTime = 1934.56 s  ClockTime = 1951 s  Iterations: 597/600  Projected time to finish: 0.162023 min
Time = 0.003588

    Collisions                      = 7437846
    Acceptance rate                 = 0.480546

Cloud name: dsmc
    Number of dsmc particles        = 81998
    Number of molecules             = 1.63996e+24
    Mass in system                  = 0.0762581
    Average linear momentum         = (8.91531e-24 4.31891e-26 7.55131e-28)
   |Average linear momentum|        = 8.91541e-24
    Average linear kinetic energy   = 1.64907e-20
    Average internal energy         = 9.91434e-21
    Average total energy            = 2.6405e-20

ExecutionTime = 1937.82 s  ClockTime = 1955 s  Iterations: 598/600  Projected time to finish: 0.108017 min
Time = 0.003594

    Collisions                      = 7434580
    Acceptance rate                 = 0.480422

Cloud name: dsmc
    Number of dsmc particles        = 81998
    Number of molecules             = 1.63996e+24
    Mass in system                  = 0.0762581
    Average linear momentum         = (8.92695e-24 4.31891e-26 7.55131e-28)
   |Average linear momentum|        = 8.92706e-24
    Average linear kinetic energy   = 1.65177e-20
    Average internal energy         = 9.88731e-21
    Average total energy            = 2.6405e-20

ExecutionTime = 1940.96 s  ClockTime = 1958 s  Iterations: 599/600  Projected time to finish: 0.0540056 min
Time = 0.0036

    Collisions                      = 7436193
    Acceptance rate                 = 0.480673

Cloud name: dsmc
    Number of dsmc particles        = 81998
    Number of molecules             = 1.63996e+24
    Mass in system                  = 0.0762581
    Average linear momentum         = (8.9408e-24 4.31891e-26 7.55131e-28)
   |Average linear momentum|        = 8.9409e-24
    Average linear kinetic energy   = 1.64345e-20
    Average internal energy         = 9.97057e-21
    Average total energy            = 2.6405e-20

ExecutionTime = 1944.43 s  ClockTime = 1961 s  Iterations: 600/600  Projected time to finish: 2.57899e-13 min
End

Finalising parallel run
