--------------------------------------------------------------------------
WARNING: Linux kernel CMA support was requested via the
btl_vader_single_copy_mechanism MCA variable, but CMA support is
not available due to restrictive ptrace settings.

The vader shared memory BTL will fall back on another single-copy
mechanism if one is available. This may result in lower performance.

  Local host: DESKTOP-KF81SG4
--------------------------------------------------------------------------
/*---------------------------------------------------------------------------*\
  =========                 |
  \\      /  F ield         | OpenFOAM: The Open Source CFD Toolbox
   \\    /   O peration     | Website:  https://openfoam.org
    \\  /    A nd           | Version:  7
     \\/     M anipulation  |
\*---------------------------------------------------------------------------*/
Build  : 7-1ff648926f77
Exec   : dsmcFoamMod -parallel
Date   : Nov 08 2020
Time   : 23:42:49
Host   : "DESKTOP-KF81SG4"
PID    : 2280
I/O    : uncollated
Case   : /home/anthonygay1812/OpenFOAM/Working/oldDSMC/dsmcShockTube
nProcs : 4
Slaves : 
3
(
"DESKTOP-KF81SG4.2281"
"DESKTOP-KF81SG4.2282"
"DESKTOP-KF81SG4.2283"
)

Pstream initialized with:
    floatTransfer      : 0
    nProcsSimpleSum    : 0
    commsType          : nonBlocking
    polling iterations : 0
sigFpe : Enabling floating point exception trapping (FOAM_SIGFPE).
fileModificationChecking : Monitoring run-time modified files using timeStampMaster (fileModificationSkew 10)
allowSystemOperations : Allowing user-supplied system call operations

// * * * * * * * * * * * * * * * * * * * * * * * * * * * * * * * * * * * * * //
Create time

Create mesh for time = 0


Constructing dsmcCloud 
Selecting BinaryCollisionModel LarsenBorgnakkeVariableHardSphere
Selecting WallInteractionModel MaxwellianThermal
Selecting InflowBoundaryModel none

Constructing constant properties for
    N2

Starting time loop

Time = 6.25e-05

[DESKTOP-KF81SG4:02275] 3 more processes have sent help message help-btl-vader.txt / cma-permission-denied
[DESKTOP-KF81SG4:02275] Set MCA parameter "orte_base_help_aggregate" to 0 to see all help / error messages
    Collisions                      = 1108119
    Acceptance rate                 = 0.996899

Cloud name: dsmc
    Number of dsmc particles        = 967366
    Number of molecules             = 5.8042e+20
    Mass in system                  = 2.69895e-05
    Average linear momentum         = (1.87654e-25 -6.84548e-27 -2.05337e-27)
   |Average linear momentum|        = 1.8779e-25
    Average linear kinetic energy   = 2.6796e-21
    Average internal energy         = 1.69174e-21
    Average total energy            = 4.37133e-21

ExecutionTime = 6.71 s  ClockTime = 8 s  Iterations: 1/400  Projected time to finish: 44.6215 min
Time = 0.000125

    Collisions                      = 2113556
    Acceptance rate                 = 0.579082

Cloud name: dsmc
    Number of dsmc particles        = 967366
    Number of molecules             = 5.8042e+20
    Mass in system                  = 2.69895e-05
    Average linear momentum         = (3.71596e-25 -6.84548e-27 -2.05337e-27)
   |Average linear momentum|        = 3.71665e-25
    Average linear kinetic energy   = 2.65614e-21
    Average internal energy         = 1.7152e-21
    Average total energy            = 4.37133e-21

ExecutionTime = 12.2 s  ClockTime = 14 s  Iterations: 2/400  Projected time to finish: 40.4633 min
Time = 0.0001875

    Collisions                      = 2081994
    Acceptance rate                 = 0.554022

Cloud name: dsmc
    Number of dsmc particles        = 967366
    Number of molecules             = 5.8042e+20
    Mass in system                  = 2.69895e-05
    Average linear momentum         = (5.58877e-25 -6.84548e-27 -2.05337e-27)
   |Average linear momentum|        = 5.58923e-25
    Average linear kinetic energy   = 2.6493e-21
    Average internal energy         = 1.72203e-21
    Average total energy            = 4.37133e-21

ExecutionTime = 18.29 s  ClockTime = 20 s  Iterations: 3/400  Projected time to finish: 40.3396 min
Time = 0.00025

    Collisions                      = 2057535
    Acceptance rate                 = 0.546645

Cloud name: dsmc
    Number of dsmc particles        = 967366
    Number of molecules             = 5.8042e+20
    Mass in system                  = 2.69895e-05
    Average linear momentum         = (7.38333e-25 -6.84548e-27 -2.05337e-27)
   |Average linear momentum|        = 7.38368e-25
    Average linear kinetic energy   = 2.64786e-21
    Average internal energy         = 1.72348e-21
    Average total energy            = 4.37133e-21

ExecutionTime = 23.9 s  ClockTime = 26 s  Iterations: 4/400  Projected time to finish: 39.435 min
Time = 0.0003125

    Collisions                      = 2030850
    Acceptance rate                 = 0.541392

Cloud name: dsmc
    Number of dsmc particles        = 967366
    Number of molecules             = 5.8042e+20
    Mass in system                  = 2.69895e-05
    Average linear momentum         = (9.23266e-25 -6.84548e-27 -2.05337e-27)
   |Average linear momentum|        = 9.23294e-25
    Average linear kinetic energy   = 2.65034e-21
    Average internal energy         = 1.72099e-21
    Average total energy            = 4.37133e-21

ExecutionTime = 29.79 s  ClockTime = 31 s  Iterations: 5/400  Projected time to finish: 39.2235 min
Time = 0.000375

    Collisions                      = 2005514
    Acceptance rate                 = 0.538439

Cloud name: dsmc
    Number of dsmc particles        = 967366
    Number of molecules             = 5.8042e+20
    Mass in system                  = 2.69895e-05
    Average linear momentum         = (1.09907e-24 -6.84548e-27 -2.05337e-27)
   |Average linear momentum|        = 1.0991e-24
    Average linear kinetic energy   = 2.65458e-21
    Average internal energy         = 1.71675e-21
    Average total energy            = 4.37133e-21

ExecutionTime = 35.34 s  ClockTime = 37 s  Iterations: 6/400  Projected time to finish: 38.6777 min
Time = 0.0004375

    Collisions                      = 1981329
    Acceptance rate                 = 0.536269

Cloud name: dsmc
    Number of dsmc particles        = 967366
    Number of molecules             = 5.8042e+20
    Mass in system                  = 2.69895e-05
    Average linear momentum         = (1.27831e-24 -6.84548e-27 -2.05337e-27)
   |Average linear momentum|        = 1.27833e-24
    Average linear kinetic energy   = 2.66113e-21
    Average internal energy         = 1.7102e-21
    Average total energy            = 4.37133e-21

ExecutionTime = 41.09 s  ClockTime = 43 s  Iterations: 7/400  Projected time to finish: 38.4485 min
Time = 0.0005

    Collisions                      = 1955251
    Acceptance rate                 = 0.534119

Cloud name: dsmc
    Number of dsmc particles        = 967366
    Number of molecules             = 5.8042e+20
    Mass in system                  = 2.69895e-05
    Average linear momentum         = (1.45903e-24 -6.84548e-27 -2.05337e-27)
   |Average linear momentum|        = 1.45905e-24
    Average linear kinetic energy   = 2.66834e-21
    Average internal energy         = 1.703e-21
    Average total energy            = 4.37133e-21

ExecutionTime = 46.5 s  ClockTime = 48 s  Iterations: 8/400  Projected time to finish: 37.975 min
Time = 0.0005625

    Collisions                      = 1928059
    Acceptance rate                 = 0.531878

Cloud name: dsmc
    Number of dsmc particles        = 967366
    Number of molecules             = 5.8042e+20
    Mass in system                  = 2.69895e-05
    Average linear momentum         = (1.64108e-24 -6.84548e-27 -2.05337e-27)
   |Average linear momentum|        = 1.64109e-24
    Average linear kinetic energy   = 2.67388e-21
    Average internal energy         = 1.69745e-21
    Average total energy            = 4.37133e-21

ExecutionTime = 52.2 s  ClockTime = 54 s  Iterations: 9/400  Projected time to finish: 37.7967 min
Time = 0.000625

    Collisions                      = 1902534
    Acceptance rate                 = 0.530086

Cloud name: dsmc
    Number of dsmc particles        = 967366
    Number of molecules             = 5.8042e+20
    Mass in system                  = 2.69895e-05
    Average linear momentum         = (1.82133e-24 -6.84548e-27 -2.05337e-27)
   |Average linear momentum|        = 1.82135e-24
    Average linear kinetic energy   = 2.67689e-21
    Average internal energy         = 1.69445e-21
    Average total energy            = 4.37133e-21

ExecutionTime = 57.71 s  ClockTime = 59 s  Iterations: 10/400  Projected time to finish: 37.5115 min
Time = 0.0006875

    Collisions                      = 1876483
    Acceptance rate                 = 0.528604

Cloud name: dsmc
    Number of dsmc particles        = 967366
    Number of molecules             = 5.8042e+20
    Mass in system                  = 2.69895e-05
    Average linear momentum         = (1.99712e-24 -6.84548e-27 -2.05337e-27)
   |Average linear momentum|        = 1.99713e-24
    Average linear kinetic energy   = 2.68168e-21
    Average internal energy         = 1.68965e-21
    Average total energy            = 4.37133e-21

ExecutionTime = 63.66 s  ClockTime = 65 s  Iterations: 11/400  Projected time to finish: 37.5208 min
Time = 0.00075

    Collisions                      = 1851046
    Acceptance rate                 = 0.527589

Cloud name: dsmc
    Number of dsmc particles        = 967366
    Number of molecules             = 5.8042e+20
    Mass in system                  = 2.69895e-05
    Average linear momentum         = (2.17489e-24 -6.84548e-27 -2.05337e-27)
   |Average linear momentum|        = 2.1749e-24
    Average linear kinetic energy   = 2.68998e-21
    Average internal energy         = 1.68135e-21
    Average total energy            = 4.37133e-21

ExecutionTime = 69.73 s  ClockTime = 72 s  Iterations: 12/400  Projected time to finish: 37.5767 min
Time = 0.0008125

    Collisions                      = 1823981
    Acceptance rate                 = 0.526141

Cloud name: dsmc
    Number of dsmc particles        = 967366
    Number of molecules             = 5.8042e+20
    Mass in system                  = 2.69895e-05
    Average linear momentum         = (2.35408e-24 -6.84548e-27 -2.05337e-27)
   |Average linear momentum|        = 2.35409e-24
    Average linear kinetic energy   = 2.6961e-21
    Average internal energy         = 1.67523e-21
    Average total energy            = 4.37133e-21

ExecutionTime = 75.52 s  ClockTime = 77 s  Iterations: 13/400  Projected time to finish: 37.4695 min
Time = 0.000875

    Collisions                      = 1797648
    Acceptance rate                 = 0.524829

Cloud name: dsmc
    Number of dsmc particles        = 967366
    Number of molecules             = 5.8042e+20
    Mass in system                  = 2.69895e-05
    Average linear momentum         = (2.5302e-24 -6.84548e-27 -2.05337e-27)
   |Average linear momentum|        = 2.53021e-24
    Average linear kinetic energy   = 2.70321e-21
    Average internal energy         = 1.66813e-21
    Average total energy            = 4.37133e-21

ExecutionTime = 81.16 s  ClockTime = 83 s  Iterations: 14/400  Projected time to finish: 37.295 min
Time = 0.0009375

    Collisions                      = 1772053
    Acceptance rate                 = 0.523582

Cloud name: dsmc
    Number of dsmc particles        = 967366
    Number of molecules             = 5.8042e+20
    Mass in system                  = 2.69895e-05
    Average linear momentum         = (2.70086e-24 -6.84548e-27 -2.05337e-27)
   |Average linear momentum|        = 2.70086e-24
    Average linear kinetic energy   = 2.70826e-21
    Average internal energy         = 1.66308e-21
    Average total energy            = 4.37133e-21

ExecutionTime = 88.09 s  ClockTime = 90 s  Iterations: 15/400  Projected time to finish: 37.6829 min
Time = 0.001

    Collisions                      = 1747529
    Acceptance rate                 = 0.522859

Cloud name: dsmc
    Number of dsmc particles        = 967366
    Number of molecules             = 5.8042e+20
    Mass in system                  = 2.69895e-05
    Average linear momentum         = (2.86443e-24 -6.84548e-27 -2.05337e-27)
   |Average linear momentum|        = 2.86444e-24
    Average linear kinetic energy   = 2.71522e-21
    Average internal energy         = 1.65611e-21
    Average total energy            = 4.37133e-21

ExecutionTime = 93.53 s  ClockTime = 96 s  Iterations: 16/400  Projected time to finish: 37.412 min
Time = 0.0010625

    Collisions                      = 1720281
    Acceptance rate                 = 0.521343

Cloud name: dsmc
    Number of dsmc particles        = 967366
    Number of molecules             = 5.8042e+20
    Mass in system                  = 2.69895e-05
    Average linear momentum         = (3.02284e-24 -6.84548e-27 -2.05337e-27)
   |Average linear momentum|        = 3.02284e-24
    Average linear kinetic energy   = 2.72131e-21
    Average internal energy         = 1.65002e-21
    Average total energy            = 4.37133e-21

ExecutionTime = 99.06 s  ClockTime = 101 s  Iterations: 17/400  Projected time to finish: 37.1961 min
Time = 0.001125

    Collisions                      = 1694375
    Acceptance rate                 = 0.520204

Cloud name: dsmc
    Number of dsmc particles        = 967366
    Number of molecules             = 5.8042e+20
    Mass in system                  = 2.69895e-05
    Average linear momentum         = (3.17363e-24 -6.84548e-27 -2.05337e-27)
   |Average linear momentum|        = 3.17364e-24
    Average linear kinetic energy   = 2.72698e-21
    Average internal energy         = 1.64436e-21
    Average total energy            = 4.37133e-21

ExecutionTime = 104.53 s  ClockTime = 107 s  Iterations: 18/400  Projected time to finish: 36.9726 min
Time = 0.0011875

    Collisions                      = 1669850
    Acceptance rate                 = 0.519447

Cloud name: dsmc
    Number of dsmc particles        = 967366
    Number of molecules             = 5.8042e+20
    Mass in system                  = 2.69895e-05
    Average linear momentum         = (3.31787e-24 -6.84548e-27 -2.05337e-27)
   |Average linear momentum|        = 3.31788e-24
    Average linear kinetic energy   = 2.73149e-21
    Average internal energy         = 1.63984e-21
    Average total energy            = 4.37133e-21

ExecutionTime = 110.06 s  ClockTime = 112 s  Iterations: 19/400  Projected time to finish: 36.7832 min
Time = 0.00125

    Collisions                      = 1645057
    Acceptance rate                 = 0.518679

Cloud name: dsmc
    Number of dsmc particles        = 967366
    Number of molecules             = 5.8042e+20
    Mass in system                  = 2.69895e-05
    Average linear momentum         = (3.45068e-24 -6.84548e-27 -2.05337e-27)
   |Average linear momentum|        = 3.45069e-24
    Average linear kinetic energy   = 2.73615e-21
    Average internal energy         = 1.63519e-21
    Average total energy            = 4.37133e-21

ExecutionTime = 115.64 s  ClockTime = 118 s  Iterations: 20/400  Projected time to finish: 36.6193 min
Time = 0.0013125

    Collisions                      = 1622072
    Acceptance rate                 = 0.518121

Cloud name: dsmc
    Number of dsmc particles        = 967366
    Number of molecules             = 5.8042e+20
    Mass in system                  = 2.69895e-05
    Average linear momentum         = (3.56663e-24 -6.84548e-27 -2.05337e-27)
   |Average linear momentum|        = 3.56664e-24
    Average linear kinetic energy   = 2.74091e-21
    Average internal energy         = 1.63043e-21
    Average total energy            = 4.37133e-21

ExecutionTime = 121.18 s  ClockTime = 124 s  Iterations: 21/400  Projected time to finish: 36.4502 min
Time = 0.001375

    Collisions                      = 1596333
    Acceptance rate                 = 0.516731

Cloud name: dsmc
    Number of dsmc particles        = 967366
    Number of molecules             = 5.8042e+20
    Mass in system                  = 2.69895e-05
    Average linear momentum         = (3.67354e-24 -6.84548e-27 -2.05337e-27)
   |Average linear momentum|        = 3.67354e-24
    Average linear kinetic energy   = 2.74338e-21
    Average internal energy         = 1.62796e-21
    Average total energy            = 4.37133e-21

ExecutionTime = 126.91 s  ClockTime = 129 s  Iterations: 22/400  Projected time to finish: 36.3424 min
Time = 0.0014375

    Collisions                      = 1572682
    Acceptance rate                 = 0.516033

Cloud name: dsmc
    Number of dsmc particles        = 967366
    Number of molecules             = 5.8042e+20
    Mass in system                  = 2.69895e-05
    Average linear momentum         = (3.77554e-24 -6.84548e-27 -2.05337e-27)
   |Average linear momentum|        = 3.77555e-24
    Average linear kinetic energy   = 2.74673e-21
    Average internal energy         = 1.62461e-21
    Average total energy            = 4.37133e-21

ExecutionTime = 132.3 s  ClockTime = 135 s  Iterations: 23/400  Projected time to finish: 36.1428 min
Time = 0.0015

    Collisions                      = 1549512
    Acceptance rate                 = 0.515403

Cloud name: dsmc
    Number of dsmc particles        = 967366
    Number of molecules             = 5.8042e+20
    Mass in system                  = 2.69895e-05
    Average linear momentum         = (3.87397e-24 -6.84548e-27 -2.05337e-27)
   |Average linear momentum|        = 3.87397e-24
    Average linear kinetic energy   = 2.74799e-21
    Average internal energy         = 1.62335e-21
    Average total energy            = 4.37133e-21

ExecutionTime = 137.23 s  ClockTime = 140 s  Iterations: 24/400  Projected time to finish: 35.8323 min
Time = 0.0015625

    Collisions                      = 1528329
    Acceptance rate                 = 0.515073

Cloud name: dsmc
    Number of dsmc particles        = 967366
    Number of molecules             = 5.8042e+20
    Mass in system                  = 2.69895e-05
    Average linear momentum         = (3.95278e-24 -6.84548e-27 -2.05337e-27)
   |Average linear momentum|        = 3.95278e-24
    Average linear kinetic energy   = 2.74923e-21
    Average internal energy         = 1.62211e-21
    Average total energy            = 4.37133e-21

ExecutionTime = 142.37 s  ClockTime = 145 s  Iterations: 25/400  Projected time to finish: 35.5925 min
Time = 0.001625

    Collisions                      = 1504221
    Acceptance rate                 = 0.513449

Cloud name: dsmc
    Number of dsmc particles        = 967366
    Number of molecules             = 5.8042e+20
    Mass in system                  = 2.69895e-05
    Average linear momentum         = (4.03252e-24 -6.84548e-27 -2.05337e-27)
   |Average linear momentum|        = 4.03252e-24
    Average linear kinetic energy   = 2.75164e-21
    Average internal energy         = 1.61969e-21
    Average total energy            = 4.37133e-21

ExecutionTime = 147.66 s  ClockTime = 150 s  Iterations: 26/400  Projected time to finish: 35.4005 min
Time = 0.0016875

    Collisions                      = 1481989
    Acceptance rate                 = 0.512694

Cloud name: dsmc
    Number of dsmc particles        = 967366
    Number of molecules             = 5.8042e+20
    Mass in system                  = 2.69895e-05
    Average linear momentum         = (4.10181e-24 -6.84548e-27 -2.05337e-27)
   |Average linear momentum|        = 4.10182e-24
    Average linear kinetic energy   = 2.75184e-21
    Average internal energy         = 1.6195e-21
    Average total energy            = 4.37133e-21

ExecutionTime = 152.75 s  ClockTime = 155 s  Iterations: 27/400  Projected time to finish: 35.1702 min
Time = 0.00175

    Collisions                      = 1461666
    Acceptance rate                 = 0.512117

Cloud name: dsmc
    Number of dsmc particles        = 967366
    Number of molecules             = 5.8042e+20
    Mass in system                  = 2.69895e-05
    Average linear momentum         = (4.17001e-24 -6.84548e-27 -2.05337e-27)
   |Average linear momentum|        = 4.17002e-24
    Average linear kinetic energy   = 2.75237e-21
    Average internal energy         = 1.61897e-21
    Average total energy            = 4.37133e-21

ExecutionTime = 157.34 s  ClockTime = 160 s  Iterations: 28/400  Projected time to finish: 34.8396 min
Time = 0.0018125

    Collisions                      = 1443082
    Acceptance rate                 = 0.512071

Cloud name: dsmc
    Number of dsmc particles        = 967366
    Number of molecules             = 5.8042e+20
    Mass in system                  = 2.69895e-05
    Average linear momentum         = (4.22838e-24 -6.84548e-27 -2.05337e-27)
   |Average linear momentum|        = 4.22839e-24
    Average linear kinetic energy   = 2.75018e-21
    Average internal energy         = 1.62116e-21
    Average total energy            = 4.37133e-21

ExecutionTime = 161.97 s  ClockTime = 165 s  Iterations: 29/400  Projected time to finish: 34.535 min
Time = 0.001875

    Collisions                      = 1422724
    Acceptance rate                 = 0.511264

Cloud name: dsmc
    Number of dsmc particles        = 967366
    Number of molecules             = 5.8042e+20
    Mass in system                  = 2.69895e-05
    Average linear momentum         = (4.27945e-24 -6.84548e-27 -2.05337e-27)
   |Average linear momentum|        = 4.27946e-24
    Average linear kinetic energy   = 2.75202e-21
    Average internal energy         = 1.61931e-21
    Average total energy            = 4.37133e-21

ExecutionTime = 166.92 s  ClockTime = 170 s  Iterations: 30/400  Projected time to finish: 34.3113 min
Time = 0.0019375

    Collisions                      = 1404156
    Acceptance rate                 = 0.510772

Cloud name: dsmc
    Number of dsmc particles        = 967366
    Number of molecules             = 5.8042e+20
    Mass in system                  = 2.69895e-05
    Average linear momentum         = (4.32717e-24 -6.84548e-27 -2.05337e-27)
   |Average linear momentum|        = 4.32718e-24
    Average linear kinetic energy   = 2.74999e-21
    Average internal energy         = 1.62134e-21
    Average total energy            = 4.37133e-21

ExecutionTime = 172.02 s  ClockTime = 175 s  Iterations: 31/400  Projected time to finish: 34.1265 min
Time = 0.002

    Collisions                      = 1384203
    Acceptance rate                 = 0.509432

Cloud name: dsmc
    Number of dsmc particles        = 967366
    Number of molecules             = 5.8042e+20
    Mass in system                  = 2.69895e-05
    Average linear momentum         = (4.36435e-24 -6.84548e-27 -2.05337e-27)
   |Average linear momentum|        = 4.36435e-24
    Average linear kinetic energy   = 2.74846e-21
    Average internal energy         = 1.62288e-21
    Average total energy            = 4.37133e-21

ExecutionTime = 176.57 s  ClockTime = 179 s  Iterations: 32/400  Projected time to finish: 33.8426 min
Time = 0.0020625

    Collisions                      = 1367042
    Acceptance rate                 = 0.508802

Cloud name: dsmc
    Number of dsmc particles        = 967366
    Number of molecules             = 5.8042e+20
    Mass in system                  = 2.69895e-05
    Average linear momentum         = (4.3936e-24 -6.84548e-27 -2.05337e-27)
   |Average linear momentum|        = 4.3936e-24
    Average linear kinetic energy   = 2.7466e-21
    Average internal energy         = 1.62473e-21
    Average total energy            = 4.37133e-21

ExecutionTime = 181.26 s  ClockTime = 184 s  Iterations: 33/400  Projected time to finish: 33.5972 min
Time = 0.002125

    Collisions                      = 1352362
    Acceptance rate                 = 0.508654

Cloud name: dsmc
    Number of dsmc particles        = 967366
    Number of molecules             = 5.8042e+20
    Mass in system                  = 2.69895e-05
    Average linear momentum         = (4.41442e-24 -6.84548e-27 -2.05337e-27)
   |Average linear momentum|        = 4.41442e-24
    Average linear kinetic energy   = 2.74569e-21
    Average internal energy         = 1.62565e-21
    Average total energy            = 4.37133e-21

ExecutionTime = 185.81 s  ClockTime = 189 s  Iterations: 34/400  Projected time to finish: 33.3365 min
Time = 0.0021875

    Collisions                      = 1337893
    Acceptance rate                 = 0.508304

Cloud name: dsmc
    Number of dsmc particles        = 967366
    Number of molecules             = 5.8042e+20
    Mass in system                  = 2.69895e-05
    Average linear momentum         = (4.42747e-24 -6.84548e-27 -2.05337e-27)
   |Average linear momentum|        = 4.42747e-24
    Average linear kinetic energy   = 2.74542e-21
    Average internal energy         = 1.62592e-21
    Average total energy            = 4.37133e-21

ExecutionTime = 190.34 s  ClockTime = 193 s  Iterations: 35/400  Projected time to finish: 33.0829 min
Time = 0.00225

    Collisions                      = 1324470
    Acceptance rate                 = 0.507904

Cloud name: dsmc
    Number of dsmc particles        = 967366
    Number of molecules             = 5.8042e+20
    Mass in system                  = 2.69895e-05
    Average linear momentum         = (4.43242e-24 -6.84548e-27 -2.05337e-27)
   |Average linear momentum|        = 4.43243e-24
    Average linear kinetic energy   = 2.74524e-21
    Average internal energy         = 1.6261e-21
    Average total energy            = 4.37133e-21

ExecutionTime = 194.95 s  ClockTime = 198 s  Iterations: 36/400  Projected time to finish: 32.8527 min
Time = 0.0023125

    Collisions                      = 1311688
    Acceptance rate                 = 0.507292

Cloud name: dsmc
    Number of dsmc particles        = 967366
    Number of molecules             = 5.8042e+20
    Mass in system                  = 2.69895e-05
    Average linear momentum         = (4.42818e-24 -6.84548e-27 -2.05337e-27)
   |Average linear momentum|        = 4.42818e-24
    Average linear kinetic energy   = 2.74446e-21
    Average internal energy         = 1.62687e-21
    Average total energy            = 4.37133e-21

ExecutionTime = 199.33 s  ClockTime = 202 s  Iterations: 37/400  Projected time to finish: 32.5931 min
Time = 0.002375

    Collisions                      = 1300730
    Acceptance rate                 = 0.506876

Cloud name: dsmc
    Number of dsmc particles        = 967366
    Number of molecules             = 5.8042e+20
    Mass in system                  = 2.69895e-05
    Average linear momentum         = (4.41831e-24 -6.84548e-27 -2.05337e-27)
   |Average linear momentum|        = 4.41832e-24
    Average linear kinetic energy   = 2.74474e-21
    Average internal energy         = 1.62659e-21
    Average total energy            = 4.37133e-21

ExecutionTime = 203.66 s  ClockTime = 207 s  Iterations: 38/400  Projected time to finish: 32.3355 min
Time = 0.0024375

    Collisions                      = 1292011
    Acceptance rate                 = 0.506963

Cloud name: dsmc
    Number of dsmc particles        = 967366
    Number of molecules             = 5.8042e+20
    Mass in system                  = 2.69895e-05
    Average linear momentum         = (4.39717e-24 -6.84548e-27 -2.05337e-27)
   |Average linear momentum|        = 4.39717e-24
    Average linear kinetic energy   = 2.74229e-21
    Average internal energy         = 1.62905e-21
    Average total energy            = 4.37133e-21

ExecutionTime = 207.69 s  ClockTime = 211 s  Iterations: 39/400  Projected time to finish: 32.0411 min
Time = 0.0025

    Collisions                      = 1283902
    Acceptance rate                 = 0.506885

Cloud name: dsmc
    Number of dsmc particles        = 967366
    Number of molecules             = 5.8042e+20
    Mass in system                  = 2.69895e-05
    Average linear momentum         = (4.36992e-24 -6.84548e-27 -2.05337e-27)
   |Average linear momentum|        = 4.36993e-24
    Average linear kinetic energy   = 2.74211e-21
    Average internal energy         = 1.62922e-21
    Average total energy            = 4.37133e-21

ExecutionTime = 213.5 s  ClockTime = 216 s  Iterations: 40/400  Projected time to finish: 32.025 min
Time = 0.0025625

    Collisions                      = 1277284
    Acceptance rate                 = 0.506816

Cloud name: dsmc
    Number of dsmc particles        = 967366
    Number of molecules             = 5.8042e+20
    Mass in system                  = 2.69895e-05
    Average linear momentum         = (4.33258e-24 -6.84548e-27 -2.05337e-27)
   |Average linear momentum|        = 4.33258e-24
    Average linear kinetic energy   = 2.74107e-21
    Average internal energy         = 1.63026e-21
    Average total energy            = 4.37133e-21

ExecutionTime = 217.45 s  ClockTime = 220 s  Iterations: 41/400  Projected time to finish: 31.7336 min
Time = 0.002625

    Collisions                      = 1270623
    Acceptance rate                 = 0.506336

Cloud name: dsmc
    Number of dsmc particles        = 967366
    Number of molecules             = 5.8042e+20
    Mass in system                  = 2.69895e-05
    Average linear momentum         = (4.29696e-24 -6.84548e-27 -2.05337e-27)
   |Average linear momentum|        = 4.29697e-24
    Average linear kinetic energy   = 2.73927e-21
    Average internal energy         = 1.63206e-21
    Average total energy            = 4.37133e-21

ExecutionTime = 221.3 s  ClockTime = 224 s  Iterations: 42/400  Projected time to finish: 31.4387 min
Time = 0.0026875

    Collisions                      = 1264482
    Acceptance rate                 = 0.505607

Cloud name: dsmc
    Number of dsmc particles        = 967366
    Number of molecules             = 5.8042e+20
    Mass in system                  = 2.69895e-05
    Average linear momentum         = (4.24806e-24 -6.84548e-27 -2.05337e-27)
   |Average linear momentum|        = 4.24807e-24
    Average linear kinetic energy   = 2.73693e-21
    Average internal energy         = 1.63441e-21
    Average total energy            = 4.37133e-21

ExecutionTime = 225.16 s  ClockTime = 228 s  Iterations: 43/400  Projected time to finish: 31.1559 min
Time = 0.00275

    Collisions                      = 1262787
    Acceptance rate                 = 0.506282

Cloud name: dsmc
    Number of dsmc particles        = 967366
    Number of molecules             = 5.8042e+20
    Mass in system                  = 2.69895e-05
    Average linear momentum         = (4.19044e-24 -6.84548e-27 -2.05337e-27)
   |Average linear momentum|        = 4.19045e-24
    Average linear kinetic energy   = 2.73398e-21
    Average internal energy         = 1.63736e-21
    Average total energy            = 4.37133e-21

ExecutionTime = 228.91 s  ClockTime = 232 s  Iterations: 44/400  Projected time to finish: 30.8682 min
Time = 0.0028125

    Collisions                      = 1258744
    Acceptance rate                 = 0.505621

Cloud name: dsmc
    Number of dsmc particles        = 967366
    Number of molecules             = 5.8042e+20
    Mass in system                  = 2.69895e-05
    Average linear momentum         = (4.13483e-24 -6.84548e-27 -2.05337e-27)
   |Average linear momentum|        = 4.13483e-24
    Average linear kinetic energy   = 2.73053e-21
    Average internal energy         = 1.6408e-21
    Average total energy            = 4.37133e-21

ExecutionTime = 232.66 s  ClockTime = 236 s  Iterations: 45/400  Projected time to finish: 30.5905 min
Time = 0.002875

    Collisions                      = 1258597
    Acceptance rate                 = 0.506015

Cloud name: dsmc
    Number of dsmc particles        = 967366
    Number of molecules             = 5.8042e+20
    Mass in system                  = 2.69895e-05
    Average linear momentum         = (4.0657e-24 -6.84548e-27 -2.05337e-27)
   |Average linear momentum|        = 4.06571e-24
    Average linear kinetic energy   = 2.7285e-21
    Average internal energy         = 1.64283e-21
    Average total energy            = 4.37133e-21

ExecutionTime = 236.67 s  ClockTime = 240 s  Iterations: 46/400  Projected time to finish: 30.3555 min
Time = 0.0029375

    Collisions                      = 1258547
    Acceptance rate                 = 0.506048

Cloud name: dsmc
    Number of dsmc particles        = 967366
    Number of molecules             = 5.8042e+20
    Mass in system                  = 2.69895e-05
    Average linear momentum         = (3.99194e-24 -6.84548e-27 -2.05337e-27)
   |Average linear momentum|        = 3.99195e-24
    Average linear kinetic energy   = 2.72548e-21
    Average internal energy         = 1.64585e-21
    Average total energy            = 4.37133e-21

ExecutionTime = 240.22 s  ClockTime = 243 s  Iterations: 47/400  Projected time to finish: 30.0701 min
Time = 0.003

    Collisions                      = 1262128
    Acceptance rate                 = 0.507085

Cloud name: dsmc
    Number of dsmc particles        = 967366
    Number of molecules             = 5.8042e+20
    Mass in system                  = 2.69895e-05
    Average linear momentum         = (3.91601e-24 -6.84548e-27 -2.05337e-27)
   |Average linear momentum|        = 3.91601e-24
    Average linear kinetic energy   = 2.72337e-21
    Average internal energy         = 1.64797e-21
    Average total energy            = 4.37133e-21

ExecutionTime = 243.92 s  ClockTime = 247 s  Iterations: 48/400  Projected time to finish: 29.8124 min
Time = 0.0030625

    Collisions                      = 1263127
    Acceptance rate                 = 0.506799

Cloud name: dsmc
    Number of dsmc particles        = 967366
    Number of molecules             = 5.8042e+20
    Mass in system                  = 2.69895e-05
    Average linear momentum         = (3.83547e-24 -6.84548e-27 -2.05337e-27)
   |Average linear momentum|        = 3.83548e-24
    Average linear kinetic energy   = 2.7195e-21
    Average internal energy         = 1.65183e-21
    Average total energy            = 4.37133e-21

ExecutionTime = 247.66 s  ClockTime = 251 s  Iterations: 49/400  Projected time to finish: 29.5676 min
Time = 0.003125

    Collisions                      = 1266780
    Acceptance rate                 = 0.50708

Cloud name: dsmc
    Number of dsmc particles        = 967366
    Number of molecules             = 5.8042e+20
    Mass in system                  = 2.69895e-05
    Average linear momentum         = (3.74419e-24 -6.84548e-27 -2.05337e-27)
   |Average linear momentum|        = 3.7442e-24
    Average linear kinetic energy   = 2.71721e-21
    Average internal energy         = 1.65413e-21
    Average total energy            = 4.37133e-21

ExecutionTime = 251.27 s  ClockTime = 254 s  Iterations: 50/400  Projected time to finish: 29.3148 min
Time = 0.0031875

    Collisions                      = 1269610
    Acceptance rate                 = 0.506793

Cloud name: dsmc
    Number of dsmc particles        = 967366
    Number of molecules             = 5.8042e+20
    Mass in system                  = 2.69895e-05
    Average linear momentum         = (3.65478e-24 -6.84548e-27 -2.05337e-27)
   |Average linear momentum|        = 3.65479e-24
    Average linear kinetic energy   = 2.71483e-21
    Average internal energy         = 1.6565e-21
    Average total energy            = 4.37133e-21

ExecutionTime = 254.82 s  ClockTime = 258 s  Iterations: 51/400  Projected time to finish: 29.0628 min
Time = 0.00325

    Collisions                      = 1274777
    Acceptance rate                 = 0.507229

Cloud name: dsmc
    Number of dsmc particles        = 967366
    Number of molecules             = 5.8042e+20
    Mass in system                  = 2.69895e-05
    Average linear momentum         = (3.56466e-24 -6.84548e-27 -2.05337e-27)
   |Average linear momentum|        = 3.56466e-24
    Average linear kinetic energy   = 2.7091e-21
    Average internal energy         = 1.66223e-21
    Average total energy            = 4.37133e-21

ExecutionTime = 258.74 s  ClockTime = 262 s  Iterations: 52/400  Projected time to finish: 28.8595 min
Time = 0.0033125

    Collisions                      = 1279289
    Acceptance rate                 = 0.507064

Cloud name: dsmc
    Number of dsmc particles        = 967366
    Number of molecules             = 5.8042e+20
    Mass in system                  = 2.69895e-05
    Average linear momentum         = (3.46343e-24 -6.84548e-27 -2.05337e-27)
   |Average linear momentum|        = 3.46344e-24
    Average linear kinetic energy   = 2.70762e-21
    Average internal energy         = 1.66372e-21
    Average total energy            = 4.37133e-21

ExecutionTime = 262.5 s  ClockTime = 266 s  Iterations: 53/400  Projected time to finish: 28.6439 min
Time = 0.003375

    Collisions                      = 1287273
    Acceptance rate                 = 0.508175

Cloud name: dsmc
    Number of dsmc particles        = 967366
    Number of molecules             = 5.8042e+20
    Mass in system                  = 2.69895e-05
    Average linear momentum         = (3.36224e-24 -6.84548e-27 -2.05337e-27)
   |Average linear momentum|        = 3.36225e-24
    Average linear kinetic energy   = 2.70348e-21
    Average internal energy         = 1.66786e-21
    Average total energy            = 4.37133e-21

ExecutionTime = 266.51 s  ClockTime = 270 s  Iterations: 54/400  Projected time to finish: 28.4606 min
Time = 0.0034375

    Collisions                      = 1292775
    Acceptance rate                 = 0.508033

Cloud name: dsmc
    Number of dsmc particles        = 967366
    Number of molecules             = 5.8042e+20
    Mass in system                  = 2.69895e-05
    Average linear momentum         = (3.25757e-24 -6.84548e-27 -2.05337e-27)
   |Average linear momentum|        = 3.25758e-24
    Average linear kinetic energy   = 2.69876e-21
    Average internal energy         = 1.67258e-21
    Average total energy            = 4.37133e-21

ExecutionTime = 270.2 s  ClockTime = 273 s  Iterations: 55/400  Projected time to finish: 28.2482 min
Time = 0.0035

    Collisions                      = 1300391
    Acceptance rate                 = 0.508437

Cloud name: dsmc
    Number of dsmc particles        = 967366
    Number of molecules             = 5.8042e+20
    Mass in system                  = 2.69895e-05
    Average linear momentum         = (3.1432e-24 -6.84548e-27 -2.05337e-27)
   |Average linear momentum|        = 3.14321e-24
    Average linear kinetic energy   = 2.69632e-21
    Average internal energy         = 1.67501e-21
    Average total energy            = 4.37133e-21

ExecutionTime = 274.11 s  ClockTime = 277 s  Iterations: 56/400  Projected time to finish: 28.0636 min
Time = 0.0035625

    Collisions                      = 1309323
    Acceptance rate                 = 0.50905

Cloud name: dsmc
    Number of dsmc particles        = 967366
    Number of molecules             = 5.8042e+20
    Mass in system                  = 2.69895e-05
    Average linear momentum         = (3.03316e-24 -6.84548e-27 -2.05337e-27)
   |Average linear momentum|        = 3.03317e-24
    Average linear kinetic energy   = 2.69192e-21
    Average internal energy         = 1.67941e-21
    Average total energy            = 4.37133e-21

ExecutionTime = 278.2 s  ClockTime = 281 s  Iterations: 57/400  Projected time to finish: 27.9013 min
Time = 0.003625

    Collisions                      = 1318388
    Acceptance rate                 = 0.509606

Cloud name: dsmc
    Number of dsmc particles        = 967366
    Number of molecules             = 5.8042e+20
    Mass in system                  = 2.69895e-05
    Average linear momentum         = (2.91762e-24 -6.84548e-27 -2.05337e-27)
   |Average linear momentum|        = 2.91763e-24
    Average linear kinetic energy   = 2.68987e-21
    Average internal energy         = 1.68147e-21
    Average total energy            = 4.37133e-21

ExecutionTime = 282.17 s  ClockTime = 285 s  Iterations: 58/400  Projected time to finish: 27.7305 min
Time = 0.0036875

    Collisions                      = 1326541
    Acceptance rate                 = 0.509826

Cloud name: dsmc
    Number of dsmc particles        = 967366
    Number of molecules             = 5.8042e+20
    Mass in system                  = 2.69895e-05
    Average linear momentum         = (2.80007e-24 -6.84548e-27 -2.05337e-27)
   |Average linear momentum|        = 2.80008e-24
    Average linear kinetic energy   = 2.68583e-21
    Average internal energy         = 1.68551e-21
    Average total energy            = 4.37133e-21

ExecutionTime = 285.99 s  ClockTime = 289 s  Iterations: 59/400  Projected time to finish: 27.5488 min
Time = 0.00375

    Collisions                      = 1336645
    Acceptance rate                 = 0.510429

Cloud name: dsmc
    Number of dsmc particles        = 967366
    Number of molecules             = 5.8042e+20
    Mass in system                  = 2.69895e-05
    Average linear momentum         = (2.67674e-24 -6.84548e-27 -2.05337e-27)
   |Average linear momentum|        = 2.67675e-24
    Average linear kinetic energy   = 2.68166e-21
    Average internal energy         = 1.68967e-21
    Average total energy            = 4.37133e-21

ExecutionTime = 290.02 s  ClockTime = 293 s  Iterations: 60/400  Projected time to finish: 27.3908 min
Time = 0.0038125

    Collisions                      = 1345498
    Acceptance rate                 = 0.510755

Cloud name: dsmc
    Number of dsmc particles        = 967366
    Number of molecules             = 5.8042e+20
    Mass in system                  = 2.69895e-05
    Average linear momentum         = (2.54708e-24 -6.84548e-27 -2.05337e-27)
   |Average linear momentum|        = 2.54709e-24
    Average linear kinetic energy   = 2.67721e-21
    Average internal energy         = 1.69412e-21
    Average total energy            = 4.37133e-21

ExecutionTime = 294.1 s  ClockTime = 297 s  Iterations: 61/400  Projected time to finish: 27.2404 min
Time = 0.003875

    Collisions                      = 1353250
    Acceptance rate                 = 0.510545

Cloud name: dsmc
    Number of dsmc particles        = 967366
    Number of molecules             = 5.8042e+20
    Mass in system                  = 2.69895e-05
    Average linear momentum         = (2.41873e-24 -6.84548e-27 -2.05337e-27)
   |Average linear momentum|        = 2.41874e-24
    Average linear kinetic energy   = 2.67253e-21
    Average internal energy         = 1.6988e-21
    Average total energy            = 4.37133e-21

ExecutionTime = 298.24 s  ClockTime = 301 s  Iterations: 62/400  Projected time to finish: 27.0982 min
Time = 0.0039375

    Collisions                      = 1363723
    Acceptance rate                 = 0.511387

Cloud name: dsmc
    Number of dsmc particles        = 967366
    Number of molecules             = 5.8042e+20
    Mass in system                  = 2.69895e-05
    Average linear momentum         = (2.29247e-24 -6.84548e-27 -2.05337e-27)
   |Average linear momentum|        = 2.29249e-24
    Average linear kinetic energy   = 2.67072e-21
    Average internal energy         = 1.70062e-21
    Average total energy            = 4.37133e-21

ExecutionTime = 302.16 s  ClockTime = 305 s  Iterations: 63/400  Projected time to finish: 26.9386 min
Time = 0.004

    Collisions                      = 1369468
    Acceptance rate                 = 0.510516

Cloud name: dsmc
    Number of dsmc particles        = 967366
    Number of molecules             = 5.8042e+20
    Mass in system                  = 2.69895e-05
    Average linear momentum         = (2.15339e-24 -6.84548e-27 -2.05337e-27)
   |Average linear momentum|        = 2.1534e-24
    Average linear kinetic energy   = 2.66435e-21
    Average internal energy         = 1.70698e-21
    Average total energy            = 4.37133e-21

ExecutionTime = 306.25 s  ClockTime = 309 s  Iterations: 64/400  Projected time to finish: 26.7969 min
Time = 0.0040625

    Collisions                      = 1377452
    Acceptance rate                 = 0.510706

Cloud name: dsmc
    Number of dsmc particles        = 967366
    Number of molecules             = 5.8042e+20
    Mass in system                  = 2.69895e-05
    Average linear momentum         = (2.01871e-24 -6.84548e-27 -2.05337e-27)
   |Average linear momentum|        = 2.01872e-24
    Average linear kinetic energy   = 2.66e-21
    Average internal energy         = 1.71133e-21
    Average total energy            = 4.37133e-21

ExecutionTime = 310.33 s  ClockTime = 313 s  Iterations: 65/400  Projected time to finish: 26.6566 min
Time = 0.004125

    Collisions                      = 1386557
    Acceptance rate                 = 0.511381

Cloud name: dsmc
    Number of dsmc particles        = 967366
    Number of molecules             = 5.8042e+20
    Mass in system                  = 2.69895e-05
    Average linear momentum         = (1.8815e-24 -6.84548e-27 -2.05337e-27)
   |Average linear momentum|        = 1.88151e-24
    Average linear kinetic energy   = 2.65784e-21
    Average internal energy         = 1.71349e-21
    Average total energy            = 4.37133e-21

ExecutionTime = 314.35 s  ClockTime = 318 s  Iterations: 66/400  Projected time to finish: 26.5134 min
Time = 0.0041875

    Collisions                      = 1394655
    Acceptance rate                 = 0.511955

Cloud name: dsmc
    Number of dsmc particles        = 967366
    Number of molecules             = 5.8042e+20
    Mass in system                  = 2.69895e-05
    Average linear momentum         = (1.74363e-24 -6.84548e-27 -2.05337e-27)
   |Average linear momentum|        = 1.74364e-24
    Average linear kinetic energy   = 2.65554e-21
    Average internal energy         = 1.71579e-21
    Average total energy            = 4.37133e-21

ExecutionTime = 318.5 s  ClockTime = 322 s  Iterations: 67/400  Projected time to finish: 26.3832 min
Time = 0.00425

    Collisions                      = 1402128
    Acceptance rate                 = 0.512707

Cloud name: dsmc
    Number of dsmc particles        = 967366
    Number of molecules             = 5.8042e+20
    Mass in system                  = 2.69895e-05
    Average linear momentum         = (1.60831e-24 -6.84548e-27 -2.05337e-27)
   |Average linear momentum|        = 1.60833e-24
    Average linear kinetic energy   = 2.65145e-21
    Average internal energy         = 1.71988e-21
    Average total energy            = 4.37133e-21

ExecutionTime = 322.7 s  ClockTime = 326 s  Iterations: 68/400  Projected time to finish: 26.2589 min
Time = 0.0043125

    Collisions                      = 1405799
    Acceptance rate                 = 0.511966

Cloud name: dsmc
    Number of dsmc particles        = 967366
    Number of molecules             = 5.8042e+20
    Mass in system                  = 2.69895e-05
    Average linear momentum         = (1.47083e-24 -6.84548e-27 -2.05337e-27)
   |Average linear momentum|        = 1.47085e-24
    Average linear kinetic energy   = 2.6489e-21
    Average internal energy         = 1.72243e-21
    Average total energy            = 4.37133e-21

ExecutionTime = 326.92 s  ClockTime = 330 s  Iterations: 69/400  Projected time to finish: 26.1378 min
Time = 0.004375

    Collisions                      = 1408893
    Acceptance rate                 = 0.511424

Cloud name: dsmc
    Number of dsmc particles        = 967366
    Number of molecules             = 5.8042e+20
    Mass in system                  = 2.69895e-05
    Average linear momentum         = (1.32617e-24 -6.84548e-27 -2.05337e-27)
   |Average linear momentum|        = 1.32619e-24
    Average linear kinetic energy   = 2.64479e-21
    Average internal energy         = 1.72654e-21
    Average total energy            = 4.37133e-21

ExecutionTime = 331.02 s  ClockTime = 334 s  Iterations: 70/400  Projected time to finish: 26.0087 min
Time = 0.0044375

    Collisions                      = 1416412
    Acceptance rate                 = 0.512731

Cloud name: dsmc
    Number of dsmc particles        = 967366
    Number of molecules             = 5.8042e+20
    Mass in system                  = 2.69895e-05
    Average linear momentum         = (1.18135e-24 -6.84548e-27 -2.05337e-27)
   |Average linear momentum|        = 1.18137e-24
    Average linear kinetic energy   = 2.64393e-21
    Average internal energy         = 1.7274e-21
    Average total energy            = 4.37133e-21

ExecutionTime = 335.09 s  ClockTime = 338 s  Iterations: 71/400  Projected time to finish: 25.879 min
Time = 0.0045

    Collisions                      = 1419957
    Acceptance rate                 = 0.512838

Cloud name: dsmc
    Number of dsmc particles        = 967366
    Number of molecules             = 5.8042e+20
    Mass in system                  = 2.69895e-05
    Average linear momentum         = (1.03877e-24 -6.84548e-27 -2.05337e-27)
   |Average linear momentum|        = 1.0388e-24
    Average linear kinetic energy   = 2.64121e-21
    Average internal energy         = 1.73013e-21
    Average total energy            = 4.37133e-21

ExecutionTime = 339.73 s  ClockTime = 343 s  Iterations: 72/400  Projected time to finish: 25.7943 min
Time = 0.0045625

    Collisions                      = 1423009
    Acceptance rate                 = 0.512723

Cloud name: dsmc
    Number of dsmc particles        = 967366
    Number of molecules             = 5.8042e+20
    Mass in system                  = 2.69895e-05
    Average linear momentum         = (8.97559e-25 -6.84548e-27 -2.05337e-27)
   |Average linear momentum|        = 8.97587e-25
    Average linear kinetic energy   = 2.63841e-21
    Average internal energy         = 1.73292e-21
    Average total energy            = 4.37133e-21

ExecutionTime = 344.16 s  ClockTime = 347 s  Iterations: 73/400  Projected time to finish: 25.6941 min
Time = 0.004625

    Collisions                      = 1426777
    Acceptance rate                 = 0.513498

Cloud name: dsmc
    Number of dsmc particles        = 967366
    Number of molecules             = 5.8042e+20
    Mass in system                  = 2.69895e-05
    Average linear momentum         = (7.54469e-25 -6.84548e-27 -2.05337e-27)
   |Average linear momentum|        = 7.54503e-25
    Average linear kinetic energy   = 2.63868e-21
    Average internal energy         = 1.73265e-21
    Average total energy            = 4.37133e-21

ExecutionTime = 348.47 s  ClockTime = 352 s  Iterations: 74/400  Projected time to finish: 25.5859 min
Time = 0.0046875

    Collisions                      = 1428702
    Acceptance rate                 = 0.51355

Cloud name: dsmc
    Number of dsmc particles        = 967366
    Number of molecules             = 5.8042e+20
    Mass in system                  = 2.69895e-05
    Average linear momentum         = (6.02133e-25 -6.84548e-27 -2.05337e-27)
   |Average linear momentum|        = 6.02176e-25
    Average linear kinetic energy   = 2.63797e-21
    Average internal energy         = 1.73337e-21
    Average total energy            = 4.37133e-21

ExecutionTime = 352.86 s  ClockTime = 356 s  Iterations: 75/400  Projected time to finish: 25.4843 min
Time = 0.00475

    Collisions                      = 1429037
    Acceptance rate                 = 0.513364

Cloud name: dsmc
    Number of dsmc particles        = 967366
    Number of molecules             = 5.8042e+20
    Mass in system                  = 2.69895e-05
    Average linear momentum         = (4.56384e-25 -6.84548e-27 -2.05337e-27)
   |Average linear momentum|        = 4.5644e-25
    Average linear kinetic energy   = 2.63421e-21
    Average internal energy         = 1.73713e-21
    Average total energy            = 4.37133e-21

ExecutionTime = 357.2 s  ClockTime = 360 s  Iterations: 76/400  Projected time to finish: 25.38 min
Time = 0.0048125

    Collisions                      = 1429121
    Acceptance rate                 = 0.513246

Cloud name: dsmc
    Number of dsmc particles        = 967366
    Number of molecules             = 5.8042e+20
    Mass in system                  = 2.69895e-05
    Average linear momentum         = (3.06151e-25 -6.84548e-27 -2.05337e-27)
   |Average linear momentum|        = 3.06234e-25
    Average linear kinetic energy   = 2.63457e-21
    Average internal energy         = 1.73677e-21
    Average total energy            = 4.37133e-21

ExecutionTime = 361.58 s  ClockTime = 365 s  Iterations: 77/400  Projected time to finish: 25.2793 min
Time = 0.004875

    Collisions                      = 1429324
    Acceptance rate                 = 0.513386

Cloud name: dsmc
    Number of dsmc particles        = 967366
    Number of molecules             = 5.8042e+20
    Mass in system                  = 2.69895e-05
    Average linear momentum         = (1.55419e-25 -6.84548e-27 -2.05337e-27)
   |Average linear momentum|        = 1.55584e-25
    Average linear kinetic energy   = 2.63374e-21
    Average internal energy         = 1.73759e-21
    Average total energy            = 4.37133e-21

ExecutionTime = 365.76 s  ClockTime = 369 s  Iterations: 78/400  Projected time to finish: 25.1655 min
Time = 0.0049375

    Collisions                      = 1430572
    Acceptance rate                 = 0.513856

Cloud name: dsmc
    Number of dsmc particles        = 967366
    Number of molecules             = 5.8042e+20
    Mass in system                  = 2.69895e-05
    Average linear momentum         = (7.23883e-27 -6.84548e-27 -2.05337e-27)
   |Average linear momentum|        = 1.01724e-26
    Average linear kinetic energy   = 2.63233e-21
    Average internal energy         = 1.739e-21
    Average total energy            = 4.37133e-21

ExecutionTime = 369.98 s  ClockTime = 373 s  Iterations: 79/400  Projected time to finish: 25.0556 min
Time = 0.005

    Collisions                      = 1427913
    Acceptance rate                 = 0.513255

Cloud name: dsmc
    Number of dsmc particles        = 967366
    Number of molecules             = 5.8042e+20
    Mass in system                  = 2.69895e-05
    Average linear momentum         = (-1.42652e-25 -6.84548e-27 -2.05337e-27)
   |Average linear momentum|        = 1.4283e-25
    Average linear kinetic energy   = 2.6328e-21
    Average internal energy         = 1.73853e-21
    Average total energy            = 4.37133e-21

ExecutionTime = 375.38 s  ClockTime = 379 s  Iterations: 80/400  Projected time to finish: 25.0253 min
Time = 0.0050625

    Collisions                      = 1426713
    Acceptance rate                 = 0.513564

Cloud name: dsmc
    Number of dsmc particles        = 967366
    Number of molecules             = 5.8042e+20
    Mass in system                  = 2.69895e-05
    Average linear momentum         = (-2.90203e-25 -6.84548e-27 -2.05337e-27)
   |Average linear momentum|        = 2.90291e-25
    Average linear kinetic energy   = 2.63381e-21
    Average internal energy         = 1.73752e-21
    Average total energy            = 4.37133e-21

ExecutionTime = 380.92 s  ClockTime = 384 s  Iterations: 81/400  Projected time to finish: 25.0028 min
Time = 0.005125

    Collisions                      = 1425181
    Acceptance rate                 = 0.513698

Cloud name: dsmc
    Number of dsmc particles        = 967366
    Number of molecules             = 5.8042e+20
    Mass in system                  = 2.69895e-05
    Average linear momentum         = (-4.3447e-25 -6.84548e-27 -2.05337e-27)
   |Average linear momentum|        = 4.34528e-25
    Average linear kinetic energy   = 2.63321e-21
    Average internal energy         = 1.73813e-21
    Average total energy            = 4.37133e-21

ExecutionTime = 385.09 s  ClockTime = 388 s  Iterations: 82/400  Projected time to finish: 24.89 min
Time = 0.0051875

    Collisions                      = 1421286
    Acceptance rate                 = 0.513247

Cloud name: dsmc
    Number of dsmc particles        = 967366
    Number of molecules             = 5.8042e+20
    Mass in system                  = 2.69895e-05
    Average linear momentum         = (-5.82076e-25 -6.84548e-27 -2.05337e-27)
   |Average linear momentum|        = 5.8212e-25
    Average linear kinetic energy   = 2.63059e-21
    Average internal energy         = 1.74074e-21
    Average total energy            = 4.37133e-21

ExecutionTime = 389.5 s  ClockTime = 393 s  Iterations: 83/400  Projected time to finish: 24.7935 min
Time = 0.00525

    Collisions                      = 1417578
    Acceptance rate                 = 0.512923

Cloud name: dsmc
    Number of dsmc particles        = 967366
    Number of molecules             = 5.8042e+20
    Mass in system                  = 2.69895e-05
    Average linear momentum         = (-7.32783e-25 -6.84548e-27 -2.05337e-27)
   |Average linear momentum|        = 7.32818e-25
    Average linear kinetic energy   = 2.63328e-21
    Average internal energy         = 1.73806e-21
    Average total energy            = 4.37133e-21

ExecutionTime = 393.71 s  ClockTime = 397 s  Iterations: 84/400  Projected time to finish: 24.685 min
Time = 0.0053125

    Collisions                      = 1414773
    Acceptance rate                 = 0.513122

Cloud name: dsmc
    Number of dsmc particles        = 967366
    Number of molecules             = 5.8042e+20
    Mass in system                  = 2.69895e-05
    Average linear momentum         = (-8.74484e-25 -6.84548e-27 -2.05337e-27)
   |Average linear momentum|        = 8.74513e-25
    Average linear kinetic energy   = 2.63328e-21
    Average internal energy         = 1.73806e-21
    Average total energy            = 4.37133e-21

ExecutionTime = 397.92 s  ClockTime = 401 s  Iterations: 85/400  Projected time to finish: 24.5774 min
Time = 0.005375

    Collisions                      = 1411807
    Acceptance rate                 = 0.513343

Cloud name: dsmc
    Number of dsmc particles        = 967366
    Number of molecules             = 5.8042e+20
    Mass in system                  = 2.69895e-05
    Average linear momentum         = (-1.01643e-24 -6.84548e-27 -2.05337e-27)
   |Average linear momentum|        = 1.01645e-24
    Average linear kinetic energy   = 2.63336e-21
    Average internal energy         = 1.73798e-21
    Average total energy            = 4.37133e-21

ExecutionTime = 402.21 s  ClockTime = 406 s  Iterations: 86/400  Projected time to finish: 24.4756 min
Time = 0.0054375

    Collisions                      = 1405657
    Acceptance rate                 = 0.512378

Cloud name: dsmc
    Number of dsmc particles        = 967366
    Number of molecules             = 5.8042e+20
    Mass in system                  = 2.69895e-05
    Average linear momentum         = (-1.15624e-24 -6.84548e-27 -2.05337e-27)
   |Average linear momentum|        = 1.15627e-24
    Average linear kinetic energy   = 2.63465e-21
    Average internal energy         = 1.73668e-21
    Average total energy            = 4.37133e-21

ExecutionTime = 406.57 s  ClockTime = 410 s  Iterations: 87/400  Projected time to finish: 24.3786 min
Time = 0.0055

    Collisions                      = 1400705
    Acceptance rate                 = 0.512332

Cloud name: dsmc
    Number of dsmc particles        = 967366
    Number of molecules             = 5.8042e+20
    Mass in system                  = 2.69895e-05
    Average linear momentum         = (-1.30297e-24 -6.84548e-27 -2.05337e-27)
   |Average linear momentum|        = 1.30299e-24
    Average linear kinetic energy   = 2.637e-21
    Average internal energy         = 1.73434e-21
    Average total energy            = 4.37133e-21

ExecutionTime = 410.64 s  ClockTime = 414 s  Iterations: 88/400  Projected time to finish: 24.2651 min
Time = 0.0055625

    Collisions                      = 1396568
    Acceptance rate                 = 0.512499

Cloud name: dsmc
    Number of dsmc particles        = 967366
    Number of molecules             = 5.8042e+20
    Mass in system                  = 2.69895e-05
    Average linear momentum         = (-1.43834e-24 -6.84548e-27 -2.05337e-27)
   |Average linear momentum|        = 1.43836e-24
    Average linear kinetic energy   = 2.63952e-21
    Average internal energy         = 1.73182e-21
    Average total energy            = 4.37133e-21

ExecutionTime = 414.77 s  ClockTime = 418 s  Iterations: 89/400  Projected time to finish: 24.1561 min
Time = 0.005625

    Collisions                      = 1391363
    Acceptance rate                 = 0.512414

Cloud name: dsmc
    Number of dsmc particles        = 967366
    Number of molecules             = 5.8042e+20
    Mass in system                  = 2.69895e-05
    Average linear momentum         = (-1.57963e-24 -6.84548e-27 -2.05337e-27)
   |Average linear momentum|        = 1.57964e-24
    Average linear kinetic energy   = 2.64148e-21
    Average internal energy         = 1.72985e-21
    Average total energy            = 4.37133e-21

ExecutionTime = 418.86 s  ClockTime = 422 s  Iterations: 90/400  Projected time to finish: 24.0457 min
Time = 0.0056875

    Collisions                      = 1384180
    Acceptance rate                 = 0.511925

Cloud name: dsmc
    Number of dsmc particles        = 967366
    Number of molecules             = 5.8042e+20
    Mass in system                  = 2.69895e-05
    Average linear momentum         = (-1.71093e-24 -6.84548e-27 -2.05337e-27)
   |Average linear momentum|        = 1.71095e-24
    Average linear kinetic energy   = 2.64421e-21
    Average internal energy         = 1.72712e-21
    Average total energy            = 4.37133e-21

ExecutionTime = 423.09 s  ClockTime = 426 s  Iterations: 91/400  Projected time to finish: 23.9441 min
Time = 0.00575

    Collisions                      = 1378967
    Acceptance rate                 = 0.512044

Cloud name: dsmc
    Number of dsmc particles        = 967366
    Number of molecules             = 5.8042e+20
    Mass in system                  = 2.69895e-05
    Average linear momentum         = (-1.84316e-24 -6.84548e-27 -2.05337e-27)
   |Average linear momentum|        = 1.84318e-24
    Average linear kinetic energy   = 2.64616e-21
    Average internal energy         = 1.72517e-21
    Average total energy            = 4.37133e-21

ExecutionTime = 427.11 s  ClockTime = 431 s  Iterations: 92/400  Projected time to finish: 23.8315 min
Time = 0.0058125

    Collisions                      = 1372195
    Acceptance rate                 = 0.511567

Cloud name: dsmc
    Number of dsmc particles        = 967366
    Number of molecules             = 5.8042e+20
    Mass in system                  = 2.69895e-05
    Average linear momentum         = (-1.97626e-24 -6.84548e-27 -2.05337e-27)
   |Average linear momentum|        = 1.97627e-24
    Average linear kinetic energy   = 2.64811e-21
    Average internal energy         = 1.72323e-21
    Average total energy            = 4.37133e-21

ExecutionTime = 430.87 s  ClockTime = 434 s  Iterations: 93/400  Projected time to finish: 23.7056 min
Time = 0.005875

    Collisions                      = 1366672
    Acceptance rate                 = 0.51173

Cloud name: dsmc
    Number of dsmc particles        = 967366
    Number of molecules             = 5.8042e+20
    Mass in system                  = 2.69895e-05
    Average linear momentum         = (-2.10396e-24 -6.84548e-27 -2.05337e-27)
   |Average linear momentum|        = 2.10397e-24
    Average linear kinetic energy   = 2.64935e-21
    Average internal energy         = 1.72199e-21
    Average total energy            = 4.37133e-21

ExecutionTime = 434.77 s  ClockTime = 438 s  Iterations: 94/400  Projected time to finish: 23.5886 min
Time = 0.0059375

    Collisions                      = 1358159
    Acceptance rate                 = 0.510705

Cloud name: dsmc
    Number of dsmc particles        = 967366
    Number of molecules             = 5.8042e+20
    Mass in system                  = 2.69895e-05
    Average linear momentum         = (-2.2296e-24 -6.84548e-27 -2.05337e-27)
   |Average linear momentum|        = 2.22961e-24
    Average linear kinetic energy   = 2.65264e-21
    Average internal energy         = 1.7187e-21
    Average total energy            = 4.37133e-21

ExecutionTime = 438.83 s  ClockTime = 442 s  Iterations: 95/400  Projected time to finish: 23.4813 min
Time = 0.006

    Collisions                      = 1353531
    Acceptance rate                 = 0.511334

Cloud name: dsmc
    Number of dsmc particles        = 967366
    Number of molecules             = 5.8042e+20
    Mass in system                  = 2.69895e-05
    Average linear momentum         = (-2.35703e-24 -6.84548e-27 -2.05337e-27)
   |Average linear momentum|        = 2.35704e-24
    Average linear kinetic energy   = 2.65597e-21
    Average internal energy         = 1.71536e-21
    Average total energy            = 4.37133e-21

ExecutionTime = 442.91 s  ClockTime = 446 s  Iterations: 96/400  Projected time to finish: 23.3758 min
Time = 0.0060625

    Collisions                      = 1344143
    Acceptance rate                 = 0.510265

Cloud name: dsmc
    Number of dsmc particles        = 967366
    Number of molecules             = 5.8042e+20
    Mass in system                  = 2.69895e-05
    Average linear momentum         = (-2.47956e-24 -6.84548e-27 -2.05337e-27)
   |Average linear momentum|        = 2.47957e-24
    Average linear kinetic energy   = 2.65779e-21
    Average internal energy         = 1.71354e-21
    Average total energy            = 4.37133e-21

ExecutionTime = 446.94 s  ClockTime = 450 s  Iterations: 97/400  Projected time to finish: 23.2685 min
Time = 0.006125

    Collisions                      = 1337617
    Acceptance rate                 = 0.510275

Cloud name: dsmc
    Number of dsmc particles        = 967366
    Number of molecules             = 5.8042e+20
    Mass in system                  = 2.69895e-05
    Average linear momentum         = (-2.59851e-24 -6.84548e-27 -2.05337e-27)
   |Average linear momentum|        = 2.59852e-24
    Average linear kinetic energy   = 2.65973e-21
    Average internal energy         = 1.71161e-21
    Average total energy            = 4.37133e-21

ExecutionTime = 450.81 s  ClockTime = 454 s  Iterations: 98/400  Projected time to finish: 23.1538 min
Time = 0.0061875

    Collisions                      = 1328990
    Acceptance rate                 = 0.509683

Cloud name: dsmc
    Number of dsmc particles        = 967366
    Number of molecules             = 5.8042e+20
    Mass in system                  = 2.69895e-05
    Average linear momentum         = (-2.71372e-24 -6.84548e-27 -2.05337e-27)
   |Average linear momentum|        = 2.71373e-24
    Average linear kinetic energy   = 2.66317e-21
    Average internal energy         = 1.70817e-21
    Average total energy            = 4.37133e-21

ExecutionTime = 454.72 s  ClockTime = 458 s  Iterations: 99/400  Projected time to finish: 23.0422 min
Time = 0.00625

    Collisions                      = 1320310
    Acceptance rate                 = 0.509112

Cloud name: dsmc
    Number of dsmc particles        = 967366
    Number of molecules             = 5.8042e+20
    Mass in system                  = 2.69895e-05
    Average linear momentum         = (-2.82938e-24 -6.84548e-27 -2.05337e-27)
   |Average linear momentum|        = 2.82939e-24
    Average linear kinetic energy   = 2.66687e-21
    Average internal energy         = 1.70447e-21
    Average total energy            = 4.37133e-21

ExecutionTime = 458.81 s  ClockTime = 462 s  Iterations: 100/400  Projected time to finish: 22.9405 min
Time = 0.0063125

    Collisions                      = 1312065
    Acceptance rate                 = 0.508667

Cloud name: dsmc
    Number of dsmc particles        = 967366
    Number of molecules             = 5.8042e+20
    Mass in system                  = 2.69895e-05
    Average linear momentum         = (-2.94699e-24 -6.84548e-27 -2.05337e-27)
   |Average linear momentum|        = 2.947e-24
    Average linear kinetic energy   = 2.66858e-21
    Average internal energy         = 1.70275e-21
    Average total energy            = 4.37133e-21

ExecutionTime = 462.75 s  ClockTime = 466 s  Iterations: 101/400  Projected time to finish: 22.8321 min
Time = 0.006375

    Collisions                      = 1305510
    Acceptance rate                 = 0.508878

Cloud name: dsmc
    Number of dsmc particles        = 967366
    Number of molecules             = 5.8042e+20
    Mass in system                  = 2.69895e-05
    Average linear momentum         = (-3.05619e-24 -6.84548e-27 -2.05337e-27)
   |Average linear momentum|        = 3.0562e-24
    Average linear kinetic energy   = 2.67269e-21
    Average internal energy         = 1.69864e-21
    Average total energy            = 4.37133e-21

ExecutionTime = 466.55 s  ClockTime = 470 s  Iterations: 102/400  Projected time to finish: 22.7176 min
Time = 0.0064375

    Collisions                      = 1296997
    Acceptance rate                 = 0.508516

Cloud name: dsmc
    Number of dsmc particles        = 967366
    Number of molecules             = 5.8042e+20
    Mass in system                  = 2.69895e-05
    Average linear momentum         = (-3.16304e-24 -6.84548e-27 -2.05337e-27)
   |Average linear momentum|        = 3.16305e-24
    Average linear kinetic energy   = 2.67544e-21
    Average internal energy         = 1.6959e-21
    Average total energy            = 4.37133e-21

ExecutionTime = 470.42 s  ClockTime = 474 s  Iterations: 103/400  Projected time to finish: 22.6076 min
Time = 0.0065

    Collisions                      = 1289760
    Acceptance rate                 = 0.508614

Cloud name: dsmc
    Number of dsmc particles        = 967366
    Number of molecules             = 5.8042e+20
    Mass in system                  = 2.69895e-05
    Average linear momentum         = (-3.27023e-24 -6.84548e-27 -2.05337e-27)
   |Average linear momentum|        = 3.27024e-24
    Average linear kinetic energy   = 2.67779e-21
    Average internal energy         = 1.69355e-21
    Average total energy            = 4.37133e-21

ExecutionTime = 474.57 s  ClockTime = 478 s  Iterations: 104/400  Projected time to finish: 22.5117 min
Time = 0.0065625

    Collisions                      = 1280024
    Acceptance rate                 = 0.507473

Cloud name: dsmc
    Number of dsmc particles        = 967366
    Number of molecules             = 5.8042e+20
    Mass in system                  = 2.69895e-05
    Average linear momentum         = (-3.36628e-24 -6.84548e-27 -2.05337e-27)
   |Average linear momentum|        = 3.36629e-24
    Average linear kinetic energy   = 2.6805e-21
    Average internal energy         = 1.69084e-21
    Average total energy            = 4.37133e-21

ExecutionTime = 478.37 s  ClockTime = 482 s  Iterations: 105/400  Projected time to finish: 22.3999 min
Time = 0.006625

    Collisions                      = 1272938
    Acceptance rate                 = 0.507607

Cloud name: dsmc
    Number of dsmc particles        = 967366
    Number of molecules             = 5.8042e+20
    Mass in system                  = 2.69895e-05
    Average linear momentum         = (-3.45496e-24 -6.84548e-27 -2.05337e-27)
   |Average linear momentum|        = 3.45497e-24
    Average linear kinetic energy   = 2.68529e-21
    Average internal energy         = 1.68605e-21
    Average total energy            = 4.37133e-21

ExecutionTime = 482.85 s  ClockTime = 487 s  Iterations: 106/400  Projected time to finish: 22.3204 min
Time = 0.0066875

    Collisions                      = 1266372
    Acceptance rate                 = 0.507662

Cloud name: dsmc
    Number of dsmc particles        = 967366
    Number of molecules             = 5.8042e+20
    Mass in system                  = 2.69895e-05
    Average linear momentum         = (-3.52863e-24 -6.84548e-27 -2.05337e-27)
   |Average linear momentum|        = 3.52863e-24
    Average linear kinetic energy   = 2.69043e-21
    Average internal energy         = 1.6809e-21
    Average total energy            = 4.37133e-21

ExecutionTime = 487.83 s  ClockTime = 492 s  Iterations: 107/400  Projected time to finish: 22.2639 min
Time = 0.00675

    Collisions                      = 1259571
    Acceptance rate                 = 0.507353

Cloud name: dsmc
    Number of dsmc particles        = 967366
    Number of molecules             = 5.8042e+20
    Mass in system                  = 2.69895e-05
    Average linear momentum         = (-3.58664e-24 -6.84548e-27 -2.05337e-27)
   |Average linear momentum|        = 3.58665e-24
    Average linear kinetic energy   = 2.6929e-21
    Average internal energy         = 1.67843e-21
    Average total energy            = 4.37133e-21

ExecutionTime = 493.39 s  ClockTime = 498 s  Iterations: 108/400  Projected time to finish: 22.233 min
Time = 0.0068125

    Collisions                      = 1255243
    Acceptance rate                 = 0.507466

Cloud name: dsmc
    Number of dsmc particles        = 967366
    Number of molecules             = 5.8042e+20
    Mass in system                  = 2.69895e-05
    Average linear momentum         = (-3.62339e-24 -6.84548e-27 -2.05337e-27)
   |Average linear momentum|        = 3.62339e-24
    Average linear kinetic energy   = 2.69459e-21
    Average internal energy         = 1.67675e-21
    Average total energy            = 4.37133e-21

ExecutionTime = 497.71 s  ClockTime = 502 s  Iterations: 109/400  Projected time to finish: 22.1458 min
Time = 0.006875

    Collisions                      = 1251827
    Acceptance rate                 = 0.507168

Cloud name: dsmc
    Number of dsmc particles        = 967366
    Number of molecules             = 5.8042e+20
    Mass in system                  = 2.69895e-05
    Average linear momentum         = (-3.63515e-24 -6.84548e-27 -2.05337e-27)
   |Average linear momentum|        = 3.63516e-24
    Average linear kinetic energy   = 2.69383e-21
    Average internal energy         = 1.67751e-21
    Average total energy            = 4.37133e-21

ExecutionTime = 501.66 s  ClockTime = 506 s  Iterations: 110/400  Projected time to finish: 22.0426 min
Time = 0.0069375

    Collisions                      = 1250669
    Acceptance rate                 = 0.506879

Cloud name: dsmc
    Number of dsmc particles        = 967366
    Number of molecules             = 5.8042e+20
    Mass in system                  = 2.69895e-05
    Average linear momentum         = (-3.62435e-24 -6.84548e-27 -2.05337e-27)
   |Average linear momentum|        = 3.62436e-24
    Average linear kinetic energy   = 2.69431e-21
    Average internal energy         = 1.67703e-21
    Average total energy            = 4.37133e-21

ExecutionTime = 505.41 s  ClockTime = 510 s  Iterations: 111/400  Projected time to finish: 21.9315 min
Time = 0.007

    Collisions                      = 1251505
    Acceptance rate                 = 0.506866

Cloud name: dsmc
    Number of dsmc particles        = 967366
    Number of molecules             = 5.8042e+20
    Mass in system                  = 2.69895e-05
    Average linear momentum         = (-3.59664e-24 -6.84548e-27 -2.05337e-27)
   |Average linear momentum|        = 3.59665e-24
    Average linear kinetic energy   = 2.69321e-21
    Average internal energy         = 1.67813e-21
    Average total energy            = 4.37133e-21

ExecutionTime = 508.8 s  ClockTime = 513 s  Iterations: 112/400  Projected time to finish: 21.8057 min
Time = 0.0070625

    Collisions                      = 1255494
    Acceptance rate                 = 0.507439

Cloud name: dsmc
    Number of dsmc particles        = 967366
    Number of molecules             = 5.8042e+20
    Mass in system                  = 2.69895e-05
    Average linear momentum         = (-3.55844e-24 -6.84548e-27 -2.05337e-27)
   |Average linear momentum|        = 3.55844e-24
    Average linear kinetic energy   = 2.69312e-21
    Average internal energy         = 1.67821e-21
    Average total energy            = 4.37133e-21

ExecutionTime = 512.55 s  ClockTime = 517 s  Iterations: 113/400  Projected time to finish: 21.6964 min
Time = 0.007125

    Collisions                      = 1259879
    Acceptance rate                 = 0.507709

Cloud name: dsmc
    Number of dsmc particles        = 967366
    Number of molecules             = 5.8042e+20
    Mass in system                  = 2.69895e-05
    Average linear momentum         = (-3.51321e-24 -6.84548e-27 -2.05337e-27)
   |Average linear momentum|        = 3.51321e-24
    Average linear kinetic energy   = 2.69126e-21
    Average internal energy         = 1.68008e-21
    Average total energy            = 4.37133e-21

ExecutionTime = 516.36 s  ClockTime = 521 s  Iterations: 114/400  Projected time to finish: 21.5905 min
Time = 0.0071875

    Collisions                      = 1265815
    Acceptance rate                 = 0.50801

Cloud name: dsmc
    Number of dsmc particles        = 967366
    Number of molecules             = 5.8042e+20
    Mass in system                  = 2.69895e-05
    Average linear momentum         = (-3.45628e-24 -6.84548e-27 -2.05337e-27)
   |Average linear momentum|        = 3.45629e-24
    Average linear kinetic energy   = 2.68947e-21
    Average internal energy         = 1.68187e-21
    Average total energy            = 4.37133e-21

ExecutionTime = 520.11 s  ClockTime = 525 s  Iterations: 115/400  Projected time to finish: 21.4828 min
Time = 0.00725

    Collisions                      = 1273889
    Acceptance rate                 = 0.508924

Cloud name: dsmc
    Number of dsmc particles        = 967366
    Number of molecules             = 5.8042e+20
    Mass in system                  = 2.69895e-05
    Average linear momentum         = (-3.38926e-24 -6.84548e-27 -2.05337e-27)
   |Average linear momentum|        = 3.38927e-24
    Average linear kinetic energy   = 2.68898e-21
    Average internal energy         = 1.68235e-21
    Average total energy            = 4.37133e-21

ExecutionTime = 523.83 s  ClockTime = 529 s  Iterations: 116/400  Projected time to finish: 21.3747 min
Time = 0.0073125

    Collisions                      = 1281241
    Acceptance rate                 = 0.509495

Cloud name: dsmc
    Number of dsmc particles        = 967366
    Number of molecules             = 5.8042e+20
    Mass in system                  = 2.69895e-05
    Average linear momentum         = (-3.31722e-24 -6.84548e-27 -2.05337e-27)
   |Average linear momentum|        = 3.31722e-24
    Average linear kinetic energy   = 2.68776e-21
    Average internal energy         = 1.68358e-21
    Average total energy            = 4.37133e-21

ExecutionTime = 527.83 s  ClockTime = 533 s  Iterations: 117/400  Projected time to finish: 21.2786 min
Time = 0.007375

    Collisions                      = 1287311
    Acceptance rate                 = 0.50916

Cloud name: dsmc
    Number of dsmc particles        = 967366
    Number of molecules             = 5.8042e+20
    Mass in system                  = 2.69895e-05
    Average linear momentum         = (-3.24471e-24 -6.84548e-27 -2.05337e-27)
   |Average linear momentum|        = 3.24472e-24
    Average linear kinetic energy   = 2.68548e-21
    Average internal energy         = 1.68586e-21
    Average total energy            = 4.37133e-21

ExecutionTime = 531.77 s  ClockTime = 536 s  Iterations: 118/400  Projected time to finish: 21.1807 min
Time = 0.0074375

    Collisions                      = 1296128
    Acceptance rate                 = 0.509771

Cloud name: dsmc
    Number of dsmc particles        = 967366
    Number of molecules             = 5.8042e+20
    Mass in system                  = 2.69895e-05
    Average linear momentum         = (-3.15981e-24 -6.84548e-27 -2.05337e-27)
   |Average linear momentum|        = 3.15982e-24
    Average linear kinetic energy   = 2.68316e-21
    Average internal energy         = 1.68818e-21
    Average total energy            = 4.37133e-21

ExecutionTime = 535.78 s  ClockTime = 540 s  Iterations: 119/400  Projected time to finish: 21.086 min
Time = 0.0075

    Collisions                      = 1304229
[...]
    Average internal energy         = 1.74637e-21
    Average total energy            = 4.37133e-21

ExecutionTime = 1535.87 s  ClockTime = 1545 s  Iterations: 370/400  Projected time to finish: 2.0755 min
Time = 0.0231875

    Collisions                      = 1267061
    Acceptance rate                 = 0.499289

Cloud name: dsmc
    Number of dsmc particles        = 967366
    Number of molecules             = 5.8042e+20
    Mass in system                  = 2.69895e-05
    Average linear momentum         = (-4.08153e-25 -6.84548e-27 -2.05337e-27)
   |Average linear momentum|        = 4.08216e-25
    Average linear kinetic energy   = 2.62236e-21
    Average internal energy         = 1.74898e-21
    Average total energy            = 4.37133e-21

ExecutionTime = 1539.14 s  ClockTime = 1548 s  Iterations: 371/400  Projected time to finish: 2.00517 min
Time = 0.02325

    Collisions                      = 1267327
    Acceptance rate                 = 0.499356

Cloud name: dsmc
    Number of dsmc particles        = 967366
    Number of molecules             = 5.8042e+20
    Mass in system                  = 2.69895e-05
    Average linear momentum         = (-4.54643e-25 -6.84548e-27 -2.05337e-27)
   |Average linear momentum|        = 4.54699e-25
    Average linear kinetic energy   = 2.62508e-21
    Average internal energy         = 1.74626e-21
    Average total energy            = 4.37133e-21

ExecutionTime = 1542.7 s  ClockTime = 1552 s  Iterations: 372/400  Projected time to finish: 1.93529 min
Time = 0.0233125

    Collisions                      = 1267840
    Acceptance rate                 = 0.499655

Cloud name: dsmc
    Number of dsmc particles        = 967366
    Number of molecules             = 5.8042e+20
    Mass in system                  = 2.69895e-05
    Average linear momentum         = (-5.00237e-25 -6.84548e-27 -2.05337e-27)
   |Average linear momentum|        = 5.00288e-25
    Average linear kinetic energy   = 2.62393e-21
    Average internal energy         = 1.7474e-21
    Average total energy            = 4.37133e-21

ExecutionTime = 1546.14 s  ClockTime = 1555 s  Iterations: 373/400  Projected time to finish: 1.86532 min
Time = 0.023375

    Collisions                      = 1266476
    Acceptance rate                 = 0.49916

Cloud name: dsmc
    Number of dsmc particles        = 967366
    Number of molecules             = 5.8042e+20
    Mass in system                  = 2.69895e-05
    Average linear momentum         = (-5.46459e-25 -6.84548e-27 -2.05337e-27)
   |Average linear momentum|        = 5.46506e-25
    Average linear kinetic energy   = 2.62382e-21
    Average internal energy         = 1.74751e-21
    Average total energy            = 4.37133e-21

ExecutionTime = 1549.58 s  ClockTime = 1559 s  Iterations: 374/400  Projected time to finish: 1.79541 min
Time = 0.0234375

    Collisions                      = 1267646
    Acceptance rate                 = 0.499689

Cloud name: dsmc
    Number of dsmc particles        = 967366
    Number of molecules             = 5.8042e+20
    Mass in system                  = 2.69895e-05
    Average linear momentum         = (-5.92833e-25 -6.84548e-27 -2.05337e-27)
   |Average linear momentum|        = 5.92876e-25
    Average linear kinetic energy   = 2.62487e-21
    Average internal energy         = 1.74647e-21
    Average total energy            = 4.37133e-21

ExecutionTime = 1553.04 s  ClockTime = 1562 s  Iterations: 375/400  Projected time to finish: 1.7256 min
Time = 0.0235

    Collisions                      = 1266483
    Acceptance rate                 = 0.499255

Cloud name: dsmc
    Number of dsmc particles        = 967366
    Number of molecules             = 5.8042e+20
    Mass in system                  = 2.69895e-05
    Average linear momentum         = (-6.40291e-25 -6.84548e-27 -2.05337e-27)
   |Average linear momentum|        = 6.40331e-25
    Average linear kinetic energy   = 2.626e-21
    Average internal energy         = 1.74533e-21
    Average total energy            = 4.37133e-21

ExecutionTime = 1556.65 s  ClockTime = 1566 s  Iterations: 376/400  Projected time to finish: 1.65601 min
Time = 0.0235625

    Collisions                      = 1267151
    Acceptance rate                 = 0.4996

Cloud name: dsmc
    Number of dsmc particles        = 967366
    Number of molecules             = 5.8042e+20
    Mass in system                  = 2.69895e-05
    Average linear momentum         = (-6.85279e-25 -6.84548e-27 -2.05337e-27)
   |Average linear momentum|        = 6.85316e-25
    Average linear kinetic energy   = 2.625e-21
    Average internal energy         = 1.74634e-21
    Average total energy            = 4.37133e-21

ExecutionTime = 1559.89 s  ClockTime = 1569 s  Iterations: 377/400  Projected time to finish: 1.5861 min
Time = 0.023625

    Collisions                      = 1265883
    Acceptance rate                 = 0.499219

Cloud name: dsmc
    Number of dsmc particles        = 967366
    Number of molecules             = 5.8042e+20
    Mass in system                  = 2.69895e-05
    Average linear momentum         = (-7.299e-25 -6.84548e-27 -2.05337e-27)
   |Average linear momentum|        = 7.29935e-25
    Average linear kinetic energy   = 2.62404e-21
    Average internal energy         = 1.7473e-21
    Average total energy            = 4.37133e-21

ExecutionTime = 1563.37 s  ClockTime = 1573 s  Iterations: 378/400  Projected time to finish: 1.5165 min
Time = 0.0236875

    Collisions                      = 1264980
    Acceptance rate                 = 0.498967

Cloud name: dsmc
    Number of dsmc particles        = 967366
    Number of molecules             = 5.8042e+20
    Mass in system                  = 2.69895e-05
    Average linear momentum         = (-7.72529e-25 -6.84548e-27 -2.05337e-27)
   |Average linear momentum|        = 7.72562e-25
    Average linear kinetic energy   = 2.62616e-21
    Average internal energy         = 1.74518e-21
    Average total energy            = 4.37133e-21

ExecutionTime = 1566.81 s  ClockTime = 1576 s  Iterations: 379/400  Projected time to finish: 1.44692 min
Time = 0.02375

    Collisions                      = 1265529
    Acceptance rate                 = 0.499283

Cloud name: dsmc
    Number of dsmc particles        = 967366
    Number of molecules             = 5.8042e+20
    Mass in system                  = 2.69895e-05
    Average linear momentum         = (-8.18649e-25 -6.84548e-27 -2.05337e-27)
   |Average linear momentum|        = 8.18681e-25
    Average linear kinetic energy   = 2.62788e-21
    Average internal energy         = 1.74346e-21
    Average total energy            = 4.37133e-21

ExecutionTime = 1570.07 s  ClockTime = 1579 s  Iterations: 380/400  Projected time to finish: 1.37725 min
Time = 0.0238125

    Collisions                      = 1265020
    Acceptance rate                 = 0.499192

Cloud name: dsmc
    Number of dsmc particles        = 967366
    Number of molecules             = 5.8042e+20
    Mass in system                  = 2.69895e-05
    Average linear momentum         = (-8.59929e-25 -6.84548e-27 -2.05337e-27)
   |Average linear momentum|        = 8.59958e-25
    Average linear kinetic energy   = 2.62704e-21
    Average internal energy         = 1.7443e-21
    Average total energy            = 4.37133e-21

ExecutionTime = 1573.56 s  ClockTime = 1583 s  Iterations: 381/400  Projected time to finish: 1.30786 min
Time = 0.023875

    Collisions                      = 1263539
    Acceptance rate                 = 0.498801

Cloud name: dsmc
    Number of dsmc particles        = 967366
    Number of molecules             = 5.8042e+20
    Mass in system                  = 2.69895e-05
    Average linear momentum         = (-9.04631e-25 -6.84548e-27 -2.05337e-27)
   |Average linear momentum|        = 9.04659e-25
    Average linear kinetic energy   = 2.62644e-21
    Average internal energy         = 1.74489e-21
    Average total energy            = 4.37133e-21

ExecutionTime = 1577.04 s  ClockTime = 1586 s  Iterations: 382/400  Projected time to finish: 1.23851 min
Time = 0.0239375

    Collisions                      = 1264882
    Acceptance rate                 = 0.499464

Cloud name: dsmc
    Number of dsmc particles        = 967366
    Number of molecules             = 5.8042e+20
    Mass in system                  = 2.69895e-05
    Average linear momentum         = (-9.46742e-25 -6.84548e-27 -2.05337e-27)
   |Average linear momentum|        = 9.46769e-25
    Average linear kinetic energy   = 2.62818e-21
    Average internal energy         = 1.74316e-21
    Average total energy            = 4.37133e-21

ExecutionTime = 1580.48 s  ClockTime = 1590 s  Iterations: 383/400  Projected time to finish: 1.1692 min
Time = 0.024

    Collisions                      = 1265428
    Acceptance rate                 = 0.499783

Cloud name: dsmc
    Number of dsmc particles        = 967366
    Number of molecules             = 5.8042e+20
    Mass in system                  = 2.69895e-05
    Average linear momentum         = (-9.87498e-25 -6.84548e-27 -2.05337e-27)
   |Average linear momentum|        = 9.87523e-25
    Average linear kinetic energy   = 2.62625e-21
    Average internal energy         = 1.74508e-21
    Average total energy            = 4.37133e-21

ExecutionTime = 1583.67 s  ClockTime = 1593 s  Iterations: 384/400  Projected time to finish: 1.09977 min
Time = 0.0240625

    Collisions                      = 1264850
    Acceptance rate                 = 0.499712

Cloud name: dsmc
    Number of dsmc particles        = 967366
    Number of molecules             = 5.8042e+20
    Mass in system                  = 2.69895e-05
    Average linear momentum         = (-1.02745e-24 -6.84548e-27 -2.05337e-27)
   |Average linear momentum|        = 1.02747e-24
    Average linear kinetic energy   = 2.62761e-21
    Average internal energy         = 1.74372e-21
    Average total energy            = 4.37133e-21

ExecutionTime = 1587.23 s  ClockTime = 1597 s  Iterations: 385/400  Projected time to finish: 1.03067 min
Time = 0.024125

    Collisions                      = 1265056
    Acceptance rate                 = 0.499985

Cloud name: dsmc
    Number of dsmc particles        = 967366
    Number of molecules             = 5.8042e+20
    Mass in system                  = 2.69895e-05
    Average linear momentum         = (-1.06414e-24 -6.84548e-27 -2.05337e-27)
   |Average linear momentum|        = 1.06416e-24
    Average linear kinetic energy   = 2.62926e-21
    Average internal energy         = 1.74207e-21
    Average total energy            = 4.37133e-21

ExecutionTime = 1590.84 s  ClockTime = 1600 s  Iterations: 386/400  Projected time to finish: 0.961648 min
Time = 0.0241875

    Collisions                      = 1263792
    Acceptance rate                 = 0.499552

Cloud name: dsmc
    Number of dsmc particles        = 967366
    Number of molecules             = 5.8042e+20
    Mass in system                  = 2.69895e-05
    Average linear momentum         = (-1.10302e-24 -6.84548e-27 -2.05337e-27)
   |Average linear momentum|        = 1.10304e-24
    Average linear kinetic energy   = 2.63236e-21
    Average internal energy         = 1.73897e-21
    Average total energy            = 4.37133e-21

ExecutionTime = 1594.29 s  ClockTime = 1604 s  Iterations: 387/400  Projected time to finish: 0.892583 min
Time = 0.02425

    Collisions                      = 1263164
    Acceptance rate                 = 0.499462

Cloud name: dsmc
    Number of dsmc particles        = 967366
    Number of molecules             = 5.8042e+20
    Mass in system                  = 2.69895e-05
    Average linear momentum         = (-1.1372e-24 -6.84548e-27 -2.05337e-27)
   |Average linear momentum|        = 1.13722e-24
    Average linear kinetic energy   = 2.6315e-21
    Average internal energy         = 1.73984e-21
    Average total energy            = 4.37133e-21

ExecutionTime = 1597.89 s  ClockTime = 1607 s  Iterations: 388/400  Projected time to finish: 0.823655 min
Time = 0.0243125

    Collisions                      = 1262354
    Acceptance rate                 = 0.499329

Cloud name: dsmc
    Number of dsmc particles        = 967366
    Number of molecules             = 5.8042e+20
    Mass in system                  = 2.69895e-05
    Average linear momentum         = (-1.16946e-24 -6.84548e-27 -2.05337e-27)
   |Average linear momentum|        = 1.16948e-24
    Average linear kinetic energy   = 2.63102e-21
    Average internal energy         = 1.74031e-21
    Average total energy            = 4.37133e-21

ExecutionTime = 1601.51 s  ClockTime = 1611 s  Iterations: 389/400  Projected time to finish: 0.754782 min
Time = 0.024375

    Collisions                      = 1263211
    Acceptance rate                 = 0.499713

Cloud name: dsmc
    Number of dsmc particles        = 967366
    Number of molecules             = 5.8042e+20
    Mass in system                  = 2.69895e-05
    Average linear momentum         = (-1.19742e-24 -6.84548e-27 -2.05337e-27)
   |Average linear momentum|        = 1.19744e-24
    Average linear kinetic energy   = 2.62953e-21
    Average internal energy         = 1.7418e-21
    Average total energy            = 4.37133e-21

ExecutionTime = 1605.09 s  ClockTime = 1615 s  Iterations: 390/400  Projected time to finish: 0.685936 min
Time = 0.0244375

    Collisions                      = 1259804
    Acceptance rate                 = 0.498454

Cloud name: dsmc
    Number of dsmc particles        = 967366
    Number of molecules             = 5.8042e+20
    Mass in system                  = 2.69895e-05
    Average linear momentum         = (-1.21885e-24 -6.84548e-27 -2.05337e-27)
   |Average linear momentum|        = 1.21888e-24
    Average linear kinetic energy   = 2.62956e-21
    Average internal energy         = 1.74178e-21
    Average total energy            = 4.37133e-21

ExecutionTime = 1608.72 s  ClockTime = 1618 s  Iterations: 391/400  Projected time to finish: 0.617156 min
Time = 0.0245

    Collisions                      = 1261313
    Acceptance rate                 = 0.499039

Cloud name: dsmc
    Number of dsmc particles        = 967366
    Number of molecules             = 5.8042e+20
    Mass in system                  = 2.69895e-05
    Average linear momentum         = (-1.24484e-24 -6.84548e-27 -2.05337e-27)
   |Average linear momentum|        = 1.24486e-24
    Average linear kinetic energy   = 2.63051e-21
    Average internal energy         = 1.74083e-21
    Average total energy            = 4.37133e-21

ExecutionTime = 1612.38 s  ClockTime = 1622 s  Iterations: 392/400  Projected time to finish: 0.548429 min
Time = 0.0245625

    Collisions                      = 1261828
    Acceptance rate                 = 0.499281

Cloud name: dsmc
    Number of dsmc particles        = 967366
    Number of molecules             = 5.8042e+20
    Mass in system                  = 2.69895e-05
    Average linear momentum         = (-1.25721e-24 -6.84548e-27 -2.05337e-27)
   |Average linear momentum|        = 1.25723e-24
    Average linear kinetic energy   = 2.63076e-21
    Average internal energy         = 1.74057e-21
    Average total energy            = 4.37133e-21

ExecutionTime = 1615.66 s  ClockTime = 1625 s  Iterations: 393/400  Projected time to finish: 0.479628 min
Time = 0.024625

    Collisions                      = 1261376
    Acceptance rate                 = 0.498935

Cloud name: dsmc
    Number of dsmc particles        = 967366
    Number of molecules             = 5.8042e+20
    Mass in system                  = 2.69895e-05
    Average linear momentum         = (-1.27074e-24 -6.84548e-27 -2.05337e-27)
   |Average linear momentum|        = 1.27076e-24
    Average linear kinetic energy   = 2.62947e-21
    Average internal energy         = 1.74186e-21
    Average total energy            = 4.37133e-21

ExecutionTime = 1618.77 s  ClockTime = 1628 s  Iterations: 394/400  Projected time to finish: 0.410855 min
Time = 0.0246875

    Collisions                      = 1262554
    Acceptance rate                 = 0.499273

Cloud name: dsmc
    Number of dsmc particles        = 967366
    Number of molecules             = 5.8042e+20
    Mass in system                  = 2.69895e-05
    Average linear momentum         = (-1.27064e-24 -6.84548e-27 -2.05337e-27)
   |Average linear momentum|        = 1.27066e-24
    Average linear kinetic energy   = 2.63176e-21
    Average internal energy         = 1.73957e-21
    Average total energy            = 4.37133e-21

ExecutionTime = 1622.27 s  ClockTime = 1632 s  Iterations: 395/400  Projected time to finish: 0.342251 min
Time = 0.02475

    Collisions                      = 1263606
    Acceptance rate                 = 0.499333

Cloud name: dsmc
    Number of dsmc particles        = 967366
    Number of molecules             = 5.8042e+20
    Mass in system                  = 2.69895e-05
    Average linear momentum         = (-1.26841e-24 -6.84548e-27 -2.05337e-27)
   |Average linear momentum|        = 1.26843e-24
    Average linear kinetic energy   = 2.63365e-21
    Average internal energy         = 1.73769e-21
    Average total energy            = 4.37133e-21

ExecutionTime = 1625.75 s  ClockTime = 1635 s  Iterations: 396/400  Projected time to finish: 0.273695 min
Time = 0.0248125

    Collisions                      = 1264779
    Acceptance rate                 = 0.49945

Cloud name: dsmc
    Number of dsmc particles        = 967366
    Number of molecules             = 5.8042e+20
    Mass in system                  = 2.69895e-05
    Average linear momentum         = (-1.25862e-24 -6.84548e-27 -2.05337e-27)
   |Average linear momentum|        = 1.25864e-24
    Average linear kinetic energy   = 2.63026e-21
    Average internal energy         = 1.74108e-21
    Average total energy            = 4.37133e-21

ExecutionTime = 1629.06 s  ClockTime = 1639 s  Iterations: 397/400  Projected time to finish: 0.205171 min
Time = 0.024875

    Collisions                      = 1265285
    Acceptance rate                 = 0.499243

Cloud name: dsmc
    Number of dsmc particles        = 967366
    Number of molecules             = 5.8042e+20
    Mass in system                  = 2.69895e-05
    Average linear momentum         = (-1.24605e-24 -6.84548e-27 -2.05337e-27)
   |Average linear momentum|        = 1.24607e-24
    Average linear kinetic energy   = 2.6296e-21
    Average internal energy         = 1.74173e-21
    Average total energy            = 4.37133e-21

ExecutionTime = 1632.36 s  ClockTime = 1642 s  Iterations: 398/400  Projected time to finish: 0.136714 min
Time = 0.0249375

    Collisions                      = 1266094
    Acceptance rate                 = 0.498991

Cloud name: dsmc
    Number of dsmc particles        = 967366
    Number of molecules             = 5.8042e+20
    Mass in system                  = 2.69895e-05
    Average linear momentum         = (-1.22645e-24 -6.84548e-27 -2.05337e-27)
   |Average linear momentum|        = 1.22647e-24
    Average linear kinetic energy   = 2.62926e-21
    Average internal energy         = 1.74208e-21
    Average total energy            = 4.37133e-21

ExecutionTime = 1635.78 s  ClockTime = 1645 s  Iterations: 399/400  Projected time to finish: 0.0683283 min
Time = 0.025

    Collisions                      = 1268586
    Acceptance rate                 = 0.499392

Cloud name: dsmc
    Number of dsmc particles        = 967366
    Number of molecules             = 5.8042e+20
    Mass in system                  = 2.69895e-05
    Average linear momentum         = (-1.20689e-24 -6.84548e-27 -2.05337e-27)
   |Average linear momentum|        = 1.20692e-24
    Average linear kinetic energy   = 2.62923e-21
    Average internal energy         = 1.74211e-21
    Average total energy            = 4.37133e-21

ExecutionTime = 1640.99 s  ClockTime = 1651 s  Iterations: 400/400  Projected time to finish: -1.94332e-14 min
End

Finalising parallel run
