/*---------------------------------------------------------------------------*\
  =========                 |
  \\      /  F ield         | OpenFOAM: The Open Source CFD Toolbox
   \\    /   O peration     | Website:  https://openfoam.org
    \\  /    A nd           | Version:  7
     \\/     M anipulation  |
\*---------------------------------------------------------------------------*/
Build  : 7-1ff648926f77
Exec   : setFields
Date   : Jun 24 2020
Time   : 01:33:56
Host   : "DESKTOP-KF81SG4"
PID    : 5225
I/O    : uncollated
Case   : /home/anthonygay1812/OpenFOAM/Working/shockTube
nProcs : 1
sigFpe : Enabling floating point exception trapping (FOAM_SIGFPE).
fileModificationChecking : Monitoring run-time modified files using timeStampMaster (fileModificationSkew 10)
allowSystemOperations : Allowing user-supplied system call operations

// * * * * * * * * * * * * * * * * * * * * * * * * * * * * * * * * * * * * * //
Create time

Create mesh for time = 0

Reading setFieldsDict

Setting field default values
    Setting internal values of volVectorField U
    Setting internal values of volScalarField T
    Setting internal values of volScalarField p
Using dynamicCode for patch sides on field p at line 25 in "/home/anthonygay1812/OpenFOAM/Working/shockTube/0/p.boundaryField.sides"
Creating new library in "dynamicCode/HPCFluid/platforms/linux64GccDPInt32Opt/lib/libHPCFluid_a19a1316a060604518404bb812dfc0911297e802.so"
Invoking "wmake -s libso /home/anthonygay1812/OpenFOAM/Working/shockTube/dynamicCode/HPCFluid"
wmake libso /home/anthonygay1812/OpenFOAM/Working/shockTube/dynamicCode/HPCFluid
    ln: ./lnInclude
    wmkdep: fixedValueFvPatchFieldTemplate.C
    Ctoo: fixedValueFvPatchFieldTemplate.C
    ld: /home/anthonygay1812/OpenFOAM/Working/shockTube/dynamicCode/HPCFluid/../platforms/linux64GccDPInt32Opt/lib/libHPCFluid_a19a1316a060604518404bb812dfc0911297e802.so

Setting field region values
    Adding cells with center within boxes 1((0 -1 -1) (5 1 1))
    Setting internal values of volScalarField T
    Setting internal values of volScalarField p

End

