/*---------------------------------------------------------------------------*\
  =========                 |
  \\      /  F ield         | OpenFOAM: The Open Source CFD Toolbox
   \\    /   O peration     | Website:  https://openfoam.org
    \\  /    A nd           | Version:  7
     \\/     M anipulation  |
\*---------------------------------------------------------------------------*/
Build  : 7-6ef561967074
Exec   : rhoCentralFoam
Date   : Jan 28 2020
Time   : 18:59:00
Host   : "DESKTOP-KF81SG4"
PID    : 11750
I/O    : uncollated
Case   : /home/anthonygay1812/OpenFOAM/Working/shockTube
nProcs : 1
sigFpe : Enabling floating point exception trapping (FOAM_SIGFPE).
fileModificationChecking : Monitoring run-time modified files using timeStampMaster (fileModificationSkew 10)
allowSystemOperations : Allowing user-supplied system call operations

// * * * * * * * * * * * * * * * * * * * * * * * * * * * * * * * * * * * * * //
Create time

Create mesh for time = 0

Reading thermophysical properties

Selecting thermodynamics package 
{
    type            hePsiThermo;
    mixture         pureMixture;
    transport       const;
    thermo          hConst;
    equationOfState perfectGas;
    specie          specie;
    energy          sensibleInternalEnergy;
}

Reading field U

Creating turbulence model

Selecting turbulence model type laminar
Selecting laminar stress model Stokes
fluxScheme: Kurganov

Starting time loop

deltaT = 1.19904e-06
Mean and max Courant Numbers = 0.0212544 0.0224376
Time = 1.19904e-06

diagonal:  Solving for rho, Initial residual = 0, Final residual = 0, No Iterations 0
diagonal:  Solving for rhoUx, Initial residual = 0, Final residual = 0, No Iterations 0
diagonal:  Solving for rhoE, Initial residual = 0, Final residual = 0, No Iterations 0
ExecutionTime = 0.05 s  ClockTime = 1 s

deltaT = 1.43712e-06
Mean and max Courant Numbers = 0.0254797 0.0279136
Time = 2.63616e-06

diagonal:  Solving for rho, Initial residual = 0, Final residual = 0, No Iterations 0
diagonal:  Solving for rhoUx, Initial residual = 0, Final residual = 0, No Iterations 0
diagonal:  Solving for rhoE, Initial residual = 0, Final residual = 0, No Iterations 0
ExecutionTime = 0.05 s  ClockTime = 1 s

deltaT = 1.72256e-06
Mean and max Courant Numbers = 0.030548 0.0370396
Time = 4.35873e-06

diagonal:  Solving for rho, Initial residual = 0, Final residual = 0, No Iterations 0
diagonal:  Solving for rhoUx, Initial residual = 0, Final residual = 0, No Iterations 0
diagonal:  Solving for rhoE, Initial residual = 0, Final residual = 0, No Iterations 0
ExecutionTime = 0.06 s  ClockTime = 1 s

deltaT = 2.06565e-06
Mean and max Courant Numbers = 0.0366416 0.0486711
Time = 6.42437e-06

diagonal:  Solving for rho, Initial residual = 0, Final residual = 0, No Iterations 0
diagonal:  Solving for rhoUx, Initial residual = 0, Final residual = 0, No Iterations 0
diagonal:  Solving for rhoE, Initial residual = 0, Final residual = 0, No Iterations 0
ExecutionTime = 0.06 s  ClockTime = 1 s

deltaT = 2.47774e-06
Mean and max Courant Numbers = 0.0439628 0.0632666
Time = 8.90212e-06

diagonal:  Solving for rho, Initial residual = 0, Final residual = 0, No Iterations 0
diagonal:  Solving for rhoUx, Initial residual = 0, Final residual = 0, No Iterations 0
diagonal:  Solving for rhoE, Initial residual = 0, Final residual = 0, No Iterations 0
ExecutionTime = 0.06 s  ClockTime = 1 s

deltaT = 2.96736e-06
Mean and max Courant Numbers = 0.0526635 0.0810688
Time = 1.18695e-05

diagonal:  Solving for rho, Initial residual = 0, Final residual = 0, No Iterations 0
diagonal:  Solving for rhoUx, Initial residual = 0, Final residual = 0, No Iterations 0
diagonal:  Solving for rhoE, Initial residual = 0, Final residual = 0, No Iterations 0
ExecutionTime = 0.06 s  ClockTime = 1 s

deltaT = 3.55443e-06
Mean and max Courant Numbers = 0.0630978 0.10217
Time = 1.54239e-05

diagonal:  Solving for rho, Initial residual = 0, Final residual = 0, No Iterations 0
diagonal:  Solving for rhoUx, Initial residual = 0, Final residual = 0, No Iterations 0
diagonal:  Solving for rhoE, Initial residual = 0, Final residual = 0, No Iterations 0
ExecutionTime = 0.06 s  ClockTime = 1 s

deltaT = 4.24386e-06
Mean and max Courant Numbers = 0.0753537 0.125991
Time = 1.96678e-05

diagonal:  Solving for rho, Initial residual = 0, Final residual = 0, No Iterations 0
diagonal:  Solving for rhoUx, Initial residual = 0, Final residual = 0, No Iterations 0
diagonal:  Solving for rhoE, Initial residual = 0, Final residual = 0, No Iterations 0
ExecutionTime = 0.06 s  ClockTime = 1 s

deltaT = 4.90166e-06
Mean and max Courant Numbers = 0.0870538 0.14806
Time = 2.45694e-05

diagonal:  Solving for rho, Initial residual = 0, Final residual = 0, No Iterations 0
diagonal:  Solving for rhoUx, Initial residual = 0, Final residual = 0, No Iterations 0
diagonal:  Solving for rhoE, Initial residual = 0, Final residual = 0, No Iterations 0
ExecutionTime = 0.06 s  ClockTime = 1 s

deltaT = 5.54222e-06
Mean and max Courant Numbers = 0.0984594 0.173031
Time = 3.01116e-05

diagonal:  Solving for rho, Initial residual = 0, Final residual = 0, No Iterations 0
diagonal:  Solving for rhoUx, Initial residual = 0, Final residual = 0, No Iterations 0
diagonal:  Solving for rhoE, Initial residual = 0, Final residual = 0, No Iterations 0
ExecutionTime = 0.06 s  ClockTime = 1 s

deltaT = 6.17763e-06
Mean and max Courant Numbers = 0.109793 0.206787
Time = 3.62893e-05

diagonal:  Solving for rho, Initial residual = 0, Final residual = 0, No Iterations 0
diagonal:  Solving for rhoUx, Initial residual = 0, Final residual = 0, No Iterations 0
diagonal:  Solving for rhoE, Initial residual = 0, Final residual = 0, No Iterations 0
ExecutionTime = 0.06 s  ClockTime = 1 s

deltaT = 5.94883e-06
Mean and max Courant Numbers = 0.10577 0.208774
Time = 4.22381e-05

diagonal:  Solving for rho, Initial residual = 0, Final residual = 0, No Iterations 0
diagonal:  Solving for rhoUx, Initial residual = 0, Final residual = 0, No Iterations 0
diagonal:  Solving for rhoE, Initial residual = 0, Final residual = 0, No Iterations 0
ExecutionTime = 0.06 s  ClockTime = 1 s

deltaT = 5.66723e-06
Mean and max Courant Numbers = 0.100792 0.199059
Time = 4.79053e-05

diagonal:  Solving for rho, Initial residual = 0, Final residual = 0, No Iterations 0
diagonal:  Solving for rhoUx, Initial residual = 0, Final residual = 0, No Iterations 0
diagonal:  Solving for rhoE, Initial residual = 0, Final residual = 0, No Iterations 0
ExecutionTime = 0.06 s  ClockTime = 1 s

deltaT = 5.66723e-06
Mean and max Courant Numbers = 0.100822 0.195164
Time = 5.35726e-05

diagonal:  Solving for rho, Initial residual = 0, Final residual = 0, No Iterations 0
diagonal:  Solving for rhoUx, Initial residual = 0, Final residual = 0, No Iterations 0
diagonal:  Solving for rhoE, Initial residual = 0, Final residual = 0, No Iterations 0
ExecutionTime = 0.06 s  ClockTime = 1 s

deltaT = 5.8063e-06
Mean and max Courant Numbers = 0.103333 0.196517
Time = 5.93789e-05

diagonal:  Solving for rho, Initial residual = 0, Final residual = 0, No Iterations 0
diagonal:  Solving for rhoUx, Initial residual = 0, Final residual = 0, No Iterations 0
diagonal:  Solving for rhoE, Initial residual = 0, Final residual = 0, No Iterations 0
ExecutionTime = 0.06 s  ClockTime = 1 s

deltaT = 5.87888e-06
Mean and max Courant Numbers = 0.104657 0.203078
Time = 6.52578e-05

diagonal:  Solving for rho, Initial residual = 0, Final residual = 0, No Iterations 0
diagonal:  Solving for rhoUx, Initial residual = 0, Final residual = 0, No Iterations 0
diagonal:  Solving for rhoE, Initial residual = 0, Final residual = 0, No Iterations 0
ExecutionTime = 0.08 s  ClockTime = 1 s

deltaT = 5.77001e-06
Mean and max Courant Numbers = 0.102751 0.198899
Time = 7.10278e-05

diagonal:  Solving for rho, Initial residual = 0, Final residual = 0, No Iterations 0
diagonal:  Solving for rhoUx, Initial residual = 0, Final residual = 0, No Iterations 0
diagonal:  Solving for rhoE, Initial residual = 0, Final residual = 0, No Iterations 0
ExecutionTime = 0.08 s  ClockTime = 1 s

deltaT = 5.77001e-06
Mean and max Courant Numbers = 0.102789 0.197724
Time = 7.67978e-05

diagonal:  Solving for rho, Initial residual = 0, Final residual = 0, No Iterations 0
diagonal:  Solving for rhoUx, Initial residual = 0, Final residual = 0, No Iterations 0
diagonal:  Solving for rhoE, Initial residual = 0, Final residual = 0, No Iterations 0
ExecutionTime = 0.08 s  ClockTime = 1 s

deltaT = 5.8063e-06
Mean and max Courant Numbers = 0.103471 0.198665
Time = 8.26041e-05

diagonal:  Solving for rho, Initial residual = 0, Final residual = 0, No Iterations 0
diagonal:  Solving for rhoUx, Initial residual = 0, Final residual = 0, No Iterations 0
diagonal:  Solving for rhoE, Initial residual = 0, Final residual = 0, No Iterations 0
ExecutionTime = 0.08 s  ClockTime = 1 s

deltaT = 5.84329e-06
Mean and max Courant Numbers = 0.104162 0.202687
Time = 8.84474e-05

diagonal:  Solving for rho, Initial residual = 0, Final residual = 0, No Iterations 0
diagonal:  Solving for rhoUx, Initial residual = 0, Final residual = 0, No Iterations 0
diagonal:  Solving for rhoE, Initial residual = 0, Final residual = 0, No Iterations 0
ExecutionTime = 0.08 s  ClockTime = 1 s

deltaT = 5.73304e-06
Mean and max Courant Numbers = 0.102236 0.198709
Time = 9.41804e-05

diagonal:  Solving for rho, Initial residual = 0, Final residual = 0, No Iterations 0
diagonal:  Solving for rhoUx, Initial residual = 0, Final residual = 0, No Iterations 0
diagonal:  Solving for rhoE, Initial residual = 0, Final residual = 0, No Iterations 0
ExecutionTime = 0.08 s  ClockTime = 1 s

deltaT = 5.76955e-06
Mean and max Courant Numbers = 0.102926 0.198847
Time = 9.995e-05

diagonal:  Solving for rho, Initial residual = 0, Final residual = 0, No Iterations 0
diagonal:  Solving for rhoUx, Initial residual = 0, Final residual = 0, No Iterations 0
diagonal:  Solving for rhoE, Initial residual = 0, Final residual = 0, No Iterations 0
ExecutionTime = 0.08 s  ClockTime = 1 s

deltaT = 5.76955e-06
Mean and max Courant Numbers = 0.102955 0.203036
Time = 0.00010572

diagonal:  Solving for rho, Initial residual = 0, Final residual = 0, No Iterations 0
diagonal:  Solving for rhoUx, Initial residual = 0, Final residual = 0, No Iterations 0
diagonal:  Solving for rhoE, Initial residual = 0, Final residual = 0, No Iterations 0
ExecutionTime = 0.08 s  ClockTime = 1 s

deltaT = 5.66e-06
Mean and max Courant Numbers = 0.101035 0.199349
Time = 0.00011138

diagonal:  Solving for rho, Initial residual = 0, Final residual = 0, No Iterations 0
diagonal:  Solving for rhoUx, Initial residual = 0, Final residual = 0, No Iterations 0
diagonal:  Solving for rhoE, Initial residual = 0, Final residual = 0, No Iterations 0
ExecutionTime = 0.08 s  ClockTime = 1 s

deltaT = 5.66e-06
Mean and max Courant Numbers = 0.101077 0.199184
Time = 0.00011704

diagonal:  Solving for rho, Initial residual = 0, Final residual = 0, No Iterations 0
diagonal:  Solving for rhoUx, Initial residual = 0, Final residual = 0, No Iterations 0
diagonal:  Solving for rhoE, Initial residual = 0, Final residual = 0, No Iterations 0
ExecutionTime = 0.08 s  ClockTime = 1 s

deltaT = 5.66e-06
Mean and max Courant Numbers = 0.101108 0.201226
Time = 0.0001227

diagonal:  Solving for rho, Initial residual = 0, Final residual = 0, No Iterations 0
diagonal:  Solving for rhoUx, Initial residual = 0, Final residual = 0, No Iterations 0
diagonal:  Solving for rhoE, Initial residual = 0, Final residual = 0, No Iterations 0
ExecutionTime = 0.08 s  ClockTime = 1 s

deltaT = 5.62372e-06
Mean and max Courant Numbers = 0.100489 0.199837
Time = 0.000128323

diagonal:  Solving for rho, Initial residual = 0, Final residual = 0, No Iterations 0
diagonal:  Solving for rhoUx, Initial residual = 0, Final residual = 0, No Iterations 0
diagonal:  Solving for rhoE, Initial residual = 0, Final residual = 0, No Iterations 0
ExecutionTime = 0.08 s  ClockTime = 1 s

deltaT = 5.62372e-06
Mean and max Courant Numbers = 0.10053 0.199613
Time = 0.000133947

diagonal:  Solving for rho, Initial residual = 0, Final residual = 0, No Iterations 0
diagonal:  Solving for rhoUx, Initial residual = 0, Final residual = 0, No Iterations 0
diagonal:  Solving for rhoE, Initial residual = 0, Final residual = 0, No Iterations 0
ExecutionTime = 0.09 s  ClockTime = 1 s

deltaT = 5.62372e-06
Mean and max Courant Numbers = 0.100565 0.20111
Time = 0.000139571

diagonal:  Solving for rho, Initial residual = 0, Final residual = 0, No Iterations 0
diagonal:  Solving for rhoUx, Initial residual = 0, Final residual = 0, No Iterations 0
diagonal:  Solving for rhoE, Initial residual = 0, Final residual = 0, No Iterations 0
ExecutionTime = 0.09 s  ClockTime = 1 s

deltaT = 5.5872e-06
Mean and max Courant Numbers = 0.0999409 0.200266
Time = 0.000145158

diagonal:  Solving for rho, Initial residual = 0, Final residual = 0, No Iterations 0
diagonal:  Solving for rhoUx, Initial residual = 0, Final residual = 0, No Iterations 0
diagonal:  Solving for rhoE, Initial residual = 0, Final residual = 0, No Iterations 0
ExecutionTime = 0.09 s  ClockTime = 1 s

deltaT = 5.55092e-06
Mean and max Courant Numbers = 0.0993314 0.198096
Time = 0.000150709

diagonal:  Solving for rho, Initial residual = 0, Final residual = 0, No Iterations 0
diagonal:  Solving for rhoUx, Initial residual = 0, Final residual = 0, No Iterations 0
diagonal:  Solving for rhoE, Initial residual = 0, Final residual = 0, No Iterations 0
ExecutionTime = 0.09 s  ClockTime = 1 s

deltaT = 5.58744e-06
Mean and max Courant Numbers = 0.100022 0.199696
Time = 0.000156296

diagonal:  Solving for rho, Initial residual = 0, Final residual = 0, No Iterations 0
diagonal:  Solving for rhoUx, Initial residual = 0, Final residual = 0, No Iterations 0
diagonal:  Solving for rhoE, Initial residual = 0, Final residual = 0, No Iterations 0
ExecutionTime = 0.09 s  ClockTime = 1 s

deltaT = 5.58744e-06
Mean and max Courant Numbers = 0.10005 0.201492
Time = 0.000161884

diagonal:  Solving for rho, Initial residual = 0, Final residual = 0, No Iterations 0
diagonal:  Solving for rhoUx, Initial residual = 0, Final residual = 0, No Iterations 0
diagonal:  Solving for rhoE, Initial residual = 0, Final residual = 0, No Iterations 0
ExecutionTime = 0.09 s  ClockTime = 1 s

deltaT = 5.51392e-06
Mean and max Courant Numbers = 0.0987717 0.197978
Time = 0.000167398

diagonal:  Solving for rho, Initial residual = 0, Final residual = 0, No Iterations 0
diagonal:  Solving for rhoUx, Initial residual = 0, Final residual = 0, No Iterations 0
diagonal:  Solving for rhoE, Initial residual = 0, Final residual = 0, No Iterations 0
ExecutionTime = 0.09 s  ClockTime = 1 s

deltaT = 5.55068e-06
Mean and max Courant Numbers = 0.0994688 0.198911
Time = 0.000172948

diagonal:  Solving for rho, Initial residual = 0, Final residual = 0, No Iterations 0
diagonal:  Solving for rhoUx, Initial residual = 0, Final residual = 0, No Iterations 0
diagonal:  Solving for rhoE, Initial residual = 0, Final residual = 0, No Iterations 0
ExecutionTime = 0.09 s  ClockTime = 1 s

deltaT = 5.55068e-06
Mean and max Courant Numbers = 0.0994976 0.200842
Time = 0.000178499

diagonal:  Solving for rho, Initial residual = 0, Final residual = 0, No Iterations 0
diagonal:  Solving for rhoUx, Initial residual = 0, Final residual = 0, No Iterations 0
diagonal:  Solving for rhoE, Initial residual = 0, Final residual = 0, No Iterations 0
ExecutionTime = 0.09 s  ClockTime = 1 s

deltaT = 5.51343e-06
Mean and max Courant Numbers = 0.0988663 0.198567
Time = 0.000184012

diagonal:  Solving for rho, Initial residual = 0, Final residual = 0, No Iterations 0
diagonal:  Solving for rhoUx, Initial residual = 0, Final residual = 0, No Iterations 0
diagonal:  Solving for rhoE, Initial residual = 0, Final residual = 0, No Iterations 0
ExecutionTime = 0.09 s  ClockTime = 1 s

deltaT = 5.55094e-06
Mean and max Courant Numbers = 0.0995786 0.199627
Time = 0.000189563

diagonal:  Solving for rho, Initial residual = 0, Final residual = 0, No Iterations 0
diagonal:  Solving for rhoUx, Initial residual = 0, Final residual = 0, No Iterations 0
diagonal:  Solving for rhoE, Initial residual = 0, Final residual = 0, No Iterations 0
ExecutionTime = 0.09 s  ClockTime = 1 s

deltaT = 5.55094e-06
Mean and max Courant Numbers = 0.099606 0.201092
Time = 0.000195114

diagonal:  Solving for rho, Initial residual = 0, Final residual = 0, No Iterations 0
diagonal:  Solving for rhoUx, Initial residual = 0, Final residual = 0, No Iterations 0
diagonal:  Solving for rhoE, Initial residual = 0, Final residual = 0, No Iterations 0
ExecutionTime = 0.09 s  ClockTime = 1 s

deltaT = 5.51292e-06
Mean and max Courant Numbers = 0.0989575 0.198691
Time = 0.000200627

diagonal:  Solving for rho, Initial residual = 0, Final residual = 0, No Iterations 0
diagonal:  Solving for rhoUx, Initial residual = 0, Final residual = 0, No Iterations 0
diagonal:  Solving for rhoE, Initial residual = 0, Final residual = 0, No Iterations 0
ExecutionTime = 0.09 s  ClockTime = 1 s

deltaT = 5.51292e-06
Mean and max Courant Numbers = 0.0989995 0.19794
Time = 0.00020614

diagonal:  Solving for rho, Initial residual = 0, Final residual = 0, No Iterations 0
diagonal:  Solving for rhoUx, Initial residual = 0, Final residual = 0, No Iterations 0
diagonal:  Solving for rhoE, Initial residual = 0, Final residual = 0, No Iterations 0
ExecutionTime = 0.11 s  ClockTime = 1 s

deltaT = 5.55147e-06
Mean and max Courant Numbers = 0.0997203 0.20107
Time = 0.000211692

diagonal:  Solving for rho, Initial residual = 0, Final residual = 0, No Iterations 0
diagonal:  Solving for rhoUx, Initial residual = 0, Final residual = 0, No Iterations 0
diagonal:  Solving for rhoE, Initial residual = 0, Final residual = 0, No Iterations 0
ExecutionTime = 0.11 s  ClockTime = 1 s

deltaT = 5.51265e-06
Mean and max Courant Numbers = 0.0990524 0.198306
Time = 0.000217204

diagonal:  Solving for rho, Initial residual = 0, Final residual = 0, No Iterations 0
diagonal:  Solving for rhoUx, Initial residual = 0, Final residual = 0, No Iterations 0
diagonal:  Solving for rhoE, Initial residual = 0, Final residual = 0, No Iterations 0
ExecutionTime = 0.11 s  ClockTime = 1 s

deltaT = 5.55174e-06
Mean and max Courant Numbers = 0.0997973 0.198618
Time = 0.000222756

diagonal:  Solving for rho, Initial residual = 0, Final residual = 0, No Iterations 0
diagonal:  Solving for rhoUx, Initial residual = 0, Final residual = 0, No Iterations 0
diagonal:  Solving for rhoE, Initial residual = 0, Final residual = 0, No Iterations 0
ExecutionTime = 0.11 s  ClockTime = 1 s

deltaT = 5.55174e-06
Mean and max Courant Numbers = 0.0998293 0.200535
Time = 0.000228308

diagonal:  Solving for rho, Initial residual = 0, Final residual = 0, No Iterations 0
diagonal:  Solving for rhoUx, Initial residual = 0, Final residual = 0, No Iterations 0
diagonal:  Solving for rhoE, Initial residual = 0, Final residual = 0, No Iterations 0
ExecutionTime = 0.11 s  ClockTime = 1 s

deltaT = 5.51209e-06
Mean and max Courant Numbers = 0.0991457 0.197889
Time = 0.00023382

diagonal:  Solving for rho, Initial residual = 0, Final residual = 0, No Iterations 0
diagonal:  Solving for rhoUx, Initial residual = 0, Final residual = 0, No Iterations 0
diagonal:  Solving for rhoE, Initial residual = 0, Final residual = 0, No Iterations 0
ExecutionTime = 0.11 s  ClockTime = 1 s

deltaT = 5.55203e-06
Mean and max Courant Numbers = 0.0999067 0.198011
Time = 0.000239372

diagonal:  Solving for rho, Initial residual = 0, Final residual = 0, No Iterations 0
diagonal:  Solving for rhoUx, Initial residual = 0, Final residual = 0, No Iterations 0
diagonal:  Solving for rhoE, Initial residual = 0, Final residual = 0, No Iterations 0
ExecutionTime = 0.11 s  ClockTime = 1 s

deltaT = 5.59285e-06
Mean and max Courant Numbers = 0.100674 0.201171
Time = 0.000244965

diagonal:  Solving for rho, Initial residual = 0, Final residual = 0, No Iterations 0
diagonal:  Solving for rhoUx, Initial residual = 0, Final residual = 0, No Iterations 0
diagonal:  Solving for rhoE, Initial residual = 0, Final residual = 0, No Iterations 0
ExecutionTime = 0.11 s  ClockTime = 1 s

deltaT = 5.55173e-06
Mean and max Courant Numbers = 0.0999612 0.198937
Time = 0.000250516

diagonal:  Solving for rho, Initial residual = 0, Final residual = 0, No Iterations 0
diagonal:  Solving for rhoUx, Initial residual = 0, Final residual = 0, No Iterations 0
diagonal:  Solving for rhoE, Initial residual = 0, Final residual = 0, No Iterations 0
ExecutionTime = 0.11 s  ClockTime = 1 s

deltaT = 5.55173e-06
Mean and max Courant Numbers = 0.100004 0.197615
Time = 0.000256068

diagonal:  Solving for rho, Initial residual = 0, Final residual = 0, No Iterations 0
diagonal:  Solving for rhoUx, Initial residual = 0, Final residual = 0, No Iterations 0
diagonal:  Solving for rhoE, Initial residual = 0, Final residual = 0, No Iterations 0
ExecutionTime = 0.11 s  ClockTime = 1 s

deltaT = 5.59347e-06
Mean and max Courant Numbers = 0.100792 0.200203
Time = 0.000261662

diagonal:  Solving for rho, Initial residual = 0, Final residual = 0, No Iterations 0
diagonal:  Solving for rhoUx, Initial residual = 0, Final residual = 0, No Iterations 0
diagonal:  Solving for rhoE, Initial residual = 0, Final residual = 0, No Iterations 0
ExecutionTime = 0.11 s  ClockTime = 1 s

deltaT = 5.55142e-06
Mean and max Courant Numbers = 0.100061 0.198644
Time = 0.000267213

diagonal:  Solving for rho, Initial residual = 0, Final residual = 0, No Iterations 0
diagonal:  Solving for rhoUx, Initial residual = 0, Final residual = 0, No Iterations 0
diagonal:  Solving for rhoE, Initial residual = 0, Final residual = 0, No Iterations 0
ExecutionTime = 0.11 s  ClockTime = 1 s

deltaT = 5.55142e-06
Mean and max Courant Numbers = 0.100101 0.197236
Time = 0.000272764

diagonal:  Solving for rho, Initial residual = 0, Final residual = 0, No Iterations 0
diagonal:  Solving for rhoUx, Initial residual = 0, Final residual = 0, No Iterations 0
diagonal:  Solving for rhoE, Initial residual = 0, Final residual = 0, No Iterations 0
ExecutionTime = 0.13 s  ClockTime = 1 s

deltaT = 5.59412e-06
Mean and max Courant Numbers = 0.100908 0.199055
Time = 0.000278359

diagonal:  Solving for rho, Initial residual = 0, Final residual = 0, No Iterations 0
diagonal:  Solving for rhoUx, Initial residual = 0, Final residual = 0, No Iterations 0
diagonal:  Solving for rhoE, Initial residual = 0, Final residual = 0, No Iterations 0
ExecutionTime = 0.13 s  ClockTime = 1 s

deltaT = 5.59412e-06
Mean and max Courant Numbers = 0.100935 0.199906
Time = 0.000283953

diagonal:  Solving for rho, Initial residual = 0, Final residual = 0, No Iterations 0
diagonal:  Solving for rhoUx, Initial residual = 0, Final residual = 0, No Iterations 0
diagonal:  Solving for rhoE, Initial residual = 0, Final residual = 0, No Iterations 0
ExecutionTime = 0.13 s  ClockTime = 1 s

deltaT = 5.59412e-06
Mean and max Courant Numbers = 0.100975 0.198408
Time = 0.000289547

diagonal:  Solving for rho, Initial residual = 0, Final residual = 0, No Iterations 0
diagonal:  Solving for rhoUx, Initial residual = 0, Final residual = 0, No Iterations 0
diagonal:  Solving for rhoE, Initial residual = 0, Final residual = 0, No Iterations 0
ExecutionTime = 0.13 s  ClockTime = 1 s

deltaT = 5.63852e-06
Mean and max Courant Numbers = 0.101816 0.199575
Time = 0.000295185

diagonal:  Solving for rho, Initial residual = 0, Final residual = 0, No Iterations 0
diagonal:  Solving for rhoUx, Initial residual = 0, Final residual = 0, No Iterations 0
diagonal:  Solving for rhoE, Initial residual = 0, Final residual = 0, No Iterations 0
ExecutionTime = 0.13 s  ClockTime = 1 s

deltaT = 5.63852e-06
Mean and max Courant Numbers = 0.101843 0.201219
Time = 0.000300824

diagonal:  Solving for rho, Initial residual = 0, Final residual = 0, No Iterations 0
diagonal:  Solving for rhoUx, Initial residual = 0, Final residual = 0, No Iterations 0
diagonal:  Solving for rhoE, Initial residual = 0, Final residual = 0, No Iterations 0
ExecutionTime = 0.13 s  ClockTime = 1 s

deltaT = 5.59341e-06
Mean and max Courant Numbers = 0.101065 0.198053
Time = 0.000306417

diagonal:  Solving for rho, Initial residual = 0, Final residual = 0, No Iterations 0
diagonal:  Solving for rhoUx, Initial residual = 0, Final residual = 0, No Iterations 0
diagonal:  Solving for rhoE, Initial residual = 0, Final residual = 0, No Iterations 0
ExecutionTime = 0.13 s  ClockTime = 1 s

deltaT = 5.63888e-06
Mean and max Courant Numbers = 0.101928 0.199202
Time = 0.000312056

diagonal:  Solving for rho, Initial residual = 0, Final residual = 0, No Iterations 0
diagonal:  Solving for rhoUx, Initial residual = 0, Final residual = 0, No Iterations 0
diagonal:  Solving for rhoE, Initial residual = 0, Final residual = 0, No Iterations 0
ExecutionTime = 0.13 s  ClockTime = 1 s

deltaT = 5.63888e-06
Mean and max Courant Numbers = 0.101956 0.200883
Time = 0.000317695

diagonal:  Solving for rho, Initial residual = 0, Final residual = 0, No Iterations 0
diagonal:  Solving for rhoUx, Initial residual = 0, Final residual = 0, No Iterations 0
diagonal:  Solving for rhoE, Initial residual = 0, Final residual = 0, No Iterations 0
ExecutionTime = 0.13 s  ClockTime = 1 s

deltaT = 5.59266e-06
Mean and max Courant Numbers = 0.101156 0.197713
Time = 0.000323288

diagonal:  Solving for rho, Initial residual = 0, Final residual = 0, No Iterations 0
diagonal:  Solving for rhoUx, Initial residual = 0, Final residual = 0, No Iterations 0
diagonal:  Solving for rhoE, Initial residual = 0, Final residual = 0, No Iterations 0
ExecutionTime = 0.13 s  ClockTime = 1 s

deltaT = 5.63927e-06
Mean and max Courant Numbers = 0.102041 0.198827
Time = 0.000328927

diagonal:  Solving for rho, Initial residual = 0, Final residual = 0, No Iterations 0
diagonal:  Solving for rhoUx, Initial residual = 0, Final residual = 0, No Iterations 0
diagonal:  Solving for rhoE, Initial residual = 0, Final residual = 0, No Iterations 0
ExecutionTime = 0.13 s  ClockTime = 1 s

deltaT = 5.63927e-06
Mean and max Courant Numbers = 0.102069 0.20047
Time = 0.000334566

diagonal:  Solving for rho, Initial residual = 0, Final residual = 0, No Iterations 0
diagonal:  Solving for rhoUx, Initial residual = 0, Final residual = 0, No Iterations 0
diagonal:  Solving for rhoE, Initial residual = 0, Final residual = 0, No Iterations 0
ExecutionTime = 0.13 s  ClockTime = 1 s

deltaT = 5.59188e-06
Mean and max Courant Numbers = 0.101245 0.197395
Time = 0.000340158

diagonal:  Solving for rho, Initial residual = 0, Final residual = 0, No Iterations 0
diagonal:  Solving for rhoUx, Initial residual = 0, Final residual = 0, No Iterations 0
diagonal:  Solving for rhoE, Initial residual = 0, Final residual = 0, No Iterations 0
ExecutionTime = 0.13 s  ClockTime = 1 s

deltaT = 5.63967e-06
Mean and max Courant Numbers = 0.102153 0.198467
Time = 0.000345798

diagonal:  Solving for rho, Initial residual = 0, Final residual = 0, No Iterations 0
diagonal:  Solving for rhoUx, Initial residual = 0, Final residual = 0, No Iterations 0
diagonal:  Solving for rhoE, Initial residual = 0, Final residual = 0, No Iterations 0
ExecutionTime = 0.14 s  ClockTime = 1 s

deltaT = 5.63967e-06
Mean and max Courant Numbers = 0.102183 0.199986
Time = 0.000351437

diagonal:  Solving for rho, Initial residual = 0, Final residual = 0, No Iterations 0
diagonal:  Solving for rhoUx, Initial residual = 0, Final residual = 0, No Iterations 0
diagonal:  Solving for rhoE, Initial residual = 0, Final residual = 0, No Iterations 0
ExecutionTime = 0.14 s  ClockTime = 1 s

deltaT = 5.63967e-06
Mean and max Courant Numbers = 0.102215 0.198838
Time = 0.000357077

diagonal:  Solving for rho, Initial residual = 0, Final residual = 0, No Iterations 0
diagonal:  Solving for rhoUx, Initial residual = 0, Final residual = 0, No Iterations 0
diagonal:  Solving for rhoE, Initial residual = 0, Final residual = 0, No Iterations 0
ExecutionTime = 0.14 s  ClockTime = 1 s

deltaT = 5.63967e-06
Mean and max Courant Numbers = 0.102258 0.198106
Time = 0.000362717

diagonal:  Solving for rho, Initial residual = 0, Final residual = 0, No Iterations 0
diagonal:  Solving for rhoUx, Initial residual = 0, Final residual = 0, No Iterations 0
diagonal:  Solving for rhoE, Initial residual = 0, Final residual = 0, No Iterations 0
ExecutionTime = 0.14 s  ClockTime = 1 s

deltaT = 5.69003e-06
Mean and max Courant Numbers = 0.103203 0.201197
Time = 0.000368407

diagonal:  Solving for rho, Initial residual = 0, Final residual = 0, No Iterations 0
diagonal:  Solving for rhoUx, Initial residual = 0, Final residual = 0, No Iterations 0
diagonal:  Solving for rhoE, Initial residual = 0, Final residual = 0, No Iterations 0
ExecutionTime = 0.14 s  ClockTime = 1 s

deltaT = 5.63922e-06
Mean and max Courant Numbers = 0.102312 0.198615
Time = 0.000374046

diagonal:  Solving for rho, Initial residual = 0, Final residual = 0, No Iterations 0
diagonal:  Solving for rhoUx, Initial residual = 0, Final residual = 0, No Iterations 0
diagonal:  Solving for rhoE, Initial residual = 0, Final residual = 0, No Iterations 0
ExecutionTime = 0.14 s  ClockTime = 1 s

deltaT = 5.63922e-06
Mean and max Courant Numbers = 0.102355 0.197739
Time = 0.000379685

diagonal:  Solving for rho, Initial residual = 0, Final residual = 0, No Iterations 0
diagonal:  Solving for rhoUx, Initial residual = 0, Final residual = 0, No Iterations 0
diagonal:  Solving for rhoE, Initial residual = 0, Final residual = 0, No Iterations 0
ExecutionTime = 0.14 s  ClockTime = 1 s

deltaT = 5.69096e-06
Mean and max Courant Numbers = 0.103328 0.200547
Time = 0.000385376

diagonal:  Solving for rho, Initial residual = 0, Final residual = 0, No Iterations 0
diagonal:  Solving for rhoUx, Initial residual = 0, Final residual = 0, No Iterations 0
diagonal:  Solving for rhoE, Initial residual = 0, Final residual = 0, No Iterations 0
ExecutionTime = 0.14 s  ClockTime = 1 s

deltaT = 5.63875e-06
Mean and max Courant Numbers = 0.102409 0.198408
Time = 0.000391015

diagonal:  Solving for rho, Initial residual = 0, Final residual = 0, No Iterations 0
diagonal:  Solving for rhoUx, Initial residual = 0, Final residual = 0, No Iterations 0
diagonal:  Solving for rhoE, Initial residual = 0, Final residual = 0, No Iterations 0
ExecutionTime = 0.14 s  ClockTime = 1 s

deltaT = 5.63875e-06
Mean and max Courant Numbers = 0.102452 0.19738
Time = 0.000396654

diagonal:  Solving for rho, Initial residual = 0, Final residual = 0, No Iterations 0
diagonal:  Solving for rhoUx, Initial residual = 0, Final residual = 0, No Iterations 0
diagonal:  Solving for rhoE, Initial residual = 0, Final residual = 0, No Iterations 0
ExecutionTime = 0.14 s  ClockTime = 1 s

deltaT = 5.69195e-06
Mean and max Courant Numbers = 0.103454 0.199735
Time = 0.000402346

diagonal:  Solving for rho, Initial residual = 0, Final residual = 0, No Iterations 0
diagonal:  Solving for rhoUx, Initial residual = 0, Final residual = 0, No Iterations 0
diagonal:  Solving for rhoE, Initial residual = 0, Final residual = 0, No Iterations 0
ExecutionTime = 0.14 s  ClockTime = 1 s

deltaT = 5.69195e-06
Mean and max Courant Numbers = 0.103483 0.200102
Time = 0.000408038

diagonal:  Solving for rho, Initial residual = 0, Final residual = 0, No Iterations 0
diagonal:  Solving for rhoUx, Initial residual = 0, Final residual = 0, No Iterations 0
diagonal:  Solving for rhoE, Initial residual = 0, Final residual = 0, No Iterations 0
ExecutionTime = 0.16 s  ClockTime = 1 s

deltaT = 5.63774e-06
Mean and max Courant Numbers = 0.102539 0.197027
Time = 0.000413675

diagonal:  Solving for rho, Initial residual = 0, Final residual = 0, No Iterations 0
diagonal:  Solving for rhoUx, Initial residual = 0, Final residual = 0, No Iterations 0
diagonal:  Solving for rhoE, Initial residual = 0, Final residual = 0, No Iterations 0
ExecutionTime = 0.16 s  ClockTime = 1 s

deltaT = 5.69247e-06
Mean and max Courant Numbers = 0.103573 0.198781
Time = 0.000419368

diagonal:  Solving for rho, Initial residual = 0, Final residual = 0, No Iterations 0
diagonal:  Solving for rhoUx, Initial residual = 0, Final residual = 0, No Iterations 0
diagonal:  Solving for rhoE, Initial residual = 0, Final residual = 0, No Iterations 0
ExecutionTime = 0.16 s  ClockTime = 1 s

deltaT = 5.69247e-06
Mean and max Courant Numbers = 0.103601 0.199932
Time = 0.00042506

diagonal:  Solving for rho, Initial residual = 0, Final residual = 0, No Iterations 0
diagonal:  Solving for rhoUx, Initial residual = 0, Final residual = 0, No Iterations 0
diagonal:  Solving for rhoE, Initial residual = 0, Final residual = 0, No Iterations 0
ExecutionTime = 0.16 s  ClockTime = 1 s

deltaT = 5.69247e-06
Mean and max Courant Numbers = 0.103642 0.198639
Time = 0.000430753

diagonal:  Solving for rho, Initial residual = 0, Final residual = 0, No Iterations 0
diagonal:  Solving for rhoUx, Initial residual = 0, Final residual = 0, No Iterations 0
diagonal:  Solving for rhoE, Initial residual = 0, Final residual = 0, No Iterations 0
ExecutionTime = 0.16 s  ClockTime = 1 s

deltaT = 5.69247e-06
Mean and max Courant Numbers = 0.103683 0.199072
Time = 0.000436445

diagonal:  Solving for rho, Initial residual = 0, Final residual = 0, No Iterations 0
diagonal:  Solving for rhoUx, Initial residual = 0, Final residual = 0, No Iterations 0
diagonal:  Solving for rhoE, Initial residual = 0, Final residual = 0, No Iterations 0
ExecutionTime = 0.16 s  ClockTime = 1 s

deltaT = 5.69247e-06
Mean and max Courant Numbers = 0.103711 0.199724
Time = 0.000442138

diagonal:  Solving for rho, Initial residual = 0, Final residual = 0, No Iterations 0
diagonal:  Solving for rhoUx, Initial residual = 0, Final residual = 0, No Iterations 0
diagonal:  Solving for rhoE, Initial residual = 0, Final residual = 0, No Iterations 0
ExecutionTime = 0.16 s  ClockTime = 1 s

deltaT = 5.69247e-06
Mean and max Courant Numbers = 0.103751 0.199681
Time = 0.00044783

diagonal:  Solving for rho, Initial residual = 0, Final residual = 0, No Iterations 0
diagonal:  Solving for rhoUx, Initial residual = 0, Final residual = 0, No Iterations 0
diagonal:  Solving for rhoE, Initial residual = 0, Final residual = 0, No Iterations 0
ExecutionTime = 0.16 s  ClockTime = 1 s

deltaT = 5.69247e-06
Mean and max Courant Numbers = 0.103793 0.200104
Time = 0.000453523

diagonal:  Solving for rho, Initial residual = 0, Final residual = 0, No Iterations 0
diagonal:  Solving for rhoUx, Initial residual = 0, Final residual = 0, No Iterations 0
diagonal:  Solving for rhoE, Initial residual = 0, Final residual = 0, No Iterations 0
ExecutionTime = 0.16 s  ClockTime = 1 s

deltaT = 5.63379e-06
Mean and max Courant Numbers = 0.102751 0.198715
Time = 0.000459156

diagonal:  Solving for rho, Initial residual = 0, Final residual = 0, No Iterations 0
diagonal:  Solving for rhoUx, Initial residual = 0, Final residual = 0, No Iterations 0
diagonal:  Solving for rhoE, Initial residual = 0, Final residual = 0, No Iterations 0
ExecutionTime = 0.16 s  ClockTime = 1 s

deltaT = 5.63379e-06
Mean and max Courant Numbers = 0.102787 0.198651
Time = 0.00046479

diagonal:  Solving for rho, Initial residual = 0, Final residual = 0, No Iterations 0
diagonal:  Solving for rhoUx, Initial residual = 0, Final residual = 0, No Iterations 0
diagonal:  Solving for rhoE, Initial residual = 0, Final residual = 0, No Iterations 0
ExecutionTime = 0.16 s  ClockTime = 1 s

deltaT = 5.63379e-06
Mean and max Courant Numbers = 0.102831 0.198915
Time = 0.000470424

diagonal:  Solving for rho, Initial residual = 0, Final residual = 0, No Iterations 0
diagonal:  Solving for rhoUx, Initial residual = 0, Final residual = 0, No Iterations 0
diagonal:  Solving for rhoE, Initial residual = 0, Final residual = 0, No Iterations 0
ExecutionTime = 0.16 s  ClockTime = 1 s

deltaT = 5.63379e-06
Mean and max Courant Numbers = 0.10286 0.199279
Time = 0.000476058

diagonal:  Solving for rho, Initial residual = 0, Final residual = 0, No Iterations 0
diagonal:  Solving for rhoUx, Initial residual = 0, Final residual = 0, No Iterations 0
diagonal:  Solving for rhoE, Initial residual = 0, Final residual = 0, No Iterations 0
ExecutionTime = 0.16 s  ClockTime = 1 s

deltaT = 5.63379e-06
Mean and max Courant Numbers = 0.102892 0.198901
Time = 0.000481692

diagonal:  Solving for rho, Initial residual = 0, Final residual = 0, No Iterations 0
diagonal:  Solving for rhoUx, Initial residual = 0, Final residual = 0, No Iterations 0
diagonal:  Solving for rhoE, Initial residual = 0, Final residual = 0, No Iterations 0
ExecutionTime = 0.17 s  ClockTime = 1 s

deltaT = 5.63379e-06
Mean and max Courant Numbers = 0.102934 0.199159
Time = 0.000487325

diagonal:  Solving for rho, Initial residual = 0, Final residual = 0, No Iterations 0
diagonal:  Solving for rhoUx, Initial residual = 0, Final residual = 0, No Iterations 0
diagonal:  Solving for rhoE, Initial residual = 0, Final residual = 0, No Iterations 0
ExecutionTime = 0.17 s  ClockTime = 1 s

deltaT = 5.63379e-06
Mean and max Courant Numbers = 0.102964 0.19888
Time = 0.000492959

diagonal:  Solving for rho, Initial residual = 0, Final residual = 0, No Iterations 0
diagonal:  Solving for rhoUx, Initial residual = 0, Final residual = 0, No Iterations 0
diagonal:  Solving for rhoE, Initial residual = 0, Final residual = 0, No Iterations 0
ExecutionTime = 0.17 s  ClockTime = 1 s

deltaT = 5.63379e-06
Mean and max Courant Numbers = 0.102995 0.19868
Time = 0.000498593

diagonal:  Solving for rho, Initial residual = 0, Final residual = 0, No Iterations 0
diagonal:  Solving for rhoUx, Initial residual = 0, Final residual = 0, No Iterations 0
diagonal:  Solving for rhoE, Initial residual = 0, Final residual = 0, No Iterations 0
ExecutionTime = 0.17 s  ClockTime = 1 s

deltaT = 5.63379e-06
Mean and max Courant Numbers = 0.103037 0.198724
Time = 0.000504227

diagonal:  Solving for rho, Initial residual = 0, Final residual = 0, No Iterations 0
diagonal:  Solving for rhoUx, Initial residual = 0, Final residual = 0, No Iterations 0
diagonal:  Solving for rhoE, Initial residual = 0, Final residual = 0, No Iterations 0
ExecutionTime = 0.17 s  ClockTime = 1 s

deltaT = 5.63379e-06
Mean and max Courant Numbers = 0.10307 0.198431
Time = 0.000509861

diagonal:  Solving for rho, Initial residual = 0, Final residual = 0, No Iterations 0
diagonal:  Solving for rhoUx, Initial residual = 0, Final residual = 0, No Iterations 0
diagonal:  Solving for rhoE, Initial residual = 0, Final residual = 0, No Iterations 0
ExecutionTime = 0.17 s  ClockTime = 1 s

deltaT = 5.63379e-06
Mean and max Courant Numbers = 0.103098 0.198573
Time = 0.000515494

diagonal:  Solving for rho, Initial residual = 0, Final residual = 0, No Iterations 0
diagonal:  Solving for rhoUx, Initial residual = 0, Final residual = 0, No Iterations 0
diagonal:  Solving for rhoE, Initial residual = 0, Final residual = 0, No Iterations 0
ExecutionTime = 0.17 s  ClockTime = 1 s

deltaT = 5.63379e-06
Mean and max Courant Numbers = 0.10314 0.198438
Time = 0.000521128

diagonal:  Solving for rho, Initial residual = 0, Final residual = 0, No Iterations 0
diagonal:  Solving for rhoUx, Initial residual = 0, Final residual = 0, No Iterations 0
diagonal:  Solving for rhoE, Initial residual = 0, Final residual = 0, No Iterations 0
ExecutionTime = 0.17 s  ClockTime = 1 s

deltaT = 5.63379e-06
Mean and max Courant Numbers = 0.103177 0.198329
Time = 0.000526762

diagonal:  Solving for rho, Initial residual = 0, Final residual = 0, No Iterations 0
diagonal:  Solving for rhoUx, Initial residual = 0, Final residual = 0, No Iterations 0
diagonal:  Solving for rhoE, Initial residual = 0, Final residual = 0, No Iterations 0
ExecutionTime = 0.17 s  ClockTime = 1 s

deltaT = 5.63379e-06
Mean and max Courant Numbers = 0.103204 0.198374
Time = 0.000532396

diagonal:  Solving for rho, Initial residual = 0, Final residual = 0, No Iterations 0
diagonal:  Solving for rhoUx, Initial residual = 0, Final residual = 0, No Iterations 0
diagonal:  Solving for rhoE, Initial residual = 0, Final residual = 0, No Iterations 0
ExecutionTime = 0.17 s  ClockTime = 1 s

deltaT = 5.63379e-06
Mean and max Courant Numbers = 0.103243 0.198251
Time = 0.000538029

diagonal:  Solving for rho, Initial residual = 0, Final residual = 0, No Iterations 0
diagonal:  Solving for rhoUx, Initial residual = 0, Final residual = 0, No Iterations 0
diagonal:  Solving for rhoE, Initial residual = 0, Final residual = 0, No Iterations 0
ExecutionTime = 0.17 s  ClockTime = 1 s

deltaT = 5.63379e-06
Mean and max Courant Numbers = 0.103281 0.198281
Time = 0.000543663

diagonal:  Solving for rho, Initial residual = 0, Final residual = 0, No Iterations 0
diagonal:  Solving for rhoUx, Initial residual = 0, Final residual = 0, No Iterations 0
diagonal:  Solving for rhoE, Initial residual = 0, Final residual = 0, No Iterations 0
ExecutionTime = 0.19 s  ClockTime = 1 s

deltaT = 5.63379e-06
Mean and max Courant Numbers = 0.103309 0.198182
Time = 0.000549297

diagonal:  Solving for rho, Initial residual = 0, Final residual = 0, No Iterations 0
diagonal:  Solving for rhoUx, Initial residual = 0, Final residual = 0, No Iterations 0
diagonal:  Solving for rhoE, Initial residual = 0, Final residual = 0, No Iterations 0
ExecutionTime = 0.19 s  ClockTime = 1 s

deltaT = 5.63379e-06
Mean and max Courant Numbers = 0.103346 0.198088
Time = 0.000554931

diagonal:  Solving for rho, Initial residual = 0, Final residual = 0, No Iterations 0
diagonal:  Solving for rhoUx, Initial residual = 0, Final residual = 0, No Iterations 0
diagonal:  Solving for rhoE, Initial residual = 0, Final residual = 0, No Iterations 0
ExecutionTime = 0.19 s  ClockTime = 1 s

deltaT = 5.63379e-06
Mean and max Courant Numbers = 0.103386 0.198101
Time = 0.000560565

diagonal:  Solving for rho, Initial residual = 0, Final residual = 0, No Iterations 0
diagonal:  Solving for rhoUx, Initial residual = 0, Final residual = 0, No Iterations 0
diagonal:  Solving for rhoE, Initial residual = 0, Final residual = 0, No Iterations 0
ExecutionTime = 0.19 s  ClockTime = 1 s

deltaT = 5.63379e-06
Mean and max Courant Numbers = 0.103415 0.198035
Time = 0.000566198

diagonal:  Solving for rho, Initial residual = 0, Final residual = 0, No Iterations 0
diagonal:  Solving for rhoUx, Initial residual = 0, Final residual = 0, No Iterations 0
diagonal:  Solving for rhoE, Initial residual = 0, Final residual = 0, No Iterations 0
ExecutionTime = 0.19 s  ClockTime = 1 s

deltaT = 5.63379e-06
Mean and max Courant Numbers = 0.103448 0.198009
Time = 0.000571832

diagonal:  Solving for rho, Initial residual = 0, Final residual = 0, No Iterations 0
diagonal:  Solving for rhoUx, Initial residual = 0, Final residual = 0, No Iterations 0
diagonal:  Solving for rhoE, Initial residual = 0, Final residual = 0, No Iterations 0
ExecutionTime = 0.19 s  ClockTime = 1 s

deltaT = 5.63379e-06
Mean and max Courant Numbers = 0.10349 0.197947
Time = 0.000577466

diagonal:  Solving for rho, Initial residual = 0, Final residual = 0, No Iterations 0
diagonal:  Solving for rhoUx, Initial residual = 0, Final residual = 0, No Iterations 0
diagonal:  Solving for rhoE, Initial residual = 0, Final residual = 0, No Iterations 0
ExecutionTime = 0.19 s  ClockTime = 1 s

deltaT = 5.63379e-06
Mean and max Courant Numbers = 0.103521 0.197901
Time = 0.0005831

diagonal:  Solving for rho, Initial residual = 0, Final residual = 0, No Iterations 0
diagonal:  Solving for rhoUx, Initial residual = 0, Final residual = 0, No Iterations 0
diagonal:  Solving for rhoE, Initial residual = 0, Final residual = 0, No Iterations 0
ExecutionTime = 0.19 s  ClockTime = 1 s

deltaT = 5.63379e-06
Mean and max Courant Numbers = 0.103551 0.197856
Time = 0.000588734

diagonal:  Solving for rho, Initial residual = 0, Final residual = 0, No Iterations 0
diagonal:  Solving for rhoUx, Initial residual = 0, Final residual = 0, No Iterations 0
diagonal:  Solving for rhoE, Initial residual = 0, Final residual = 0, No Iterations 0
ExecutionTime = 0.19 s  ClockTime = 1 s

deltaT = 5.63379e-06
Mean and max Courant Numbers = 0.103594 0.197836
Time = 0.000594367

diagonal:  Solving for rho, Initial residual = 0, Final residual = 0, No Iterations 0
diagonal:  Solving for rhoUx, Initial residual = 0, Final residual = 0, No Iterations 0
diagonal:  Solving for rhoE, Initial residual = 0, Final residual = 0, No Iterations 0
ExecutionTime = 0.19 s  ClockTime = 1 s

deltaT = 5.63379e-06
Mean and max Courant Numbers = 0.103626 0.197784
Time = 0.000600001

diagonal:  Solving for rho, Initial residual = 0, Final residual = 0, No Iterations 0
diagonal:  Solving for rhoUx, Initial residual = 0, Final residual = 0, No Iterations 0
diagonal:  Solving for rhoE, Initial residual = 0, Final residual = 0, No Iterations 0
ExecutionTime = 0.19 s  ClockTime = 1 s

deltaT = 5.63379e-06
Mean and max Courant Numbers = 0.103655 0.197735
Time = 0.000605635

diagonal:  Solving for rho, Initial residual = 0, Final residual = 0, No Iterations 0
diagonal:  Solving for rhoUx, Initial residual = 0, Final residual = 0, No Iterations 0
diagonal:  Solving for rhoE, Initial residual = 0, Final residual = 0, No Iterations 0
ExecutionTime = 0.19 s  ClockTime = 1 s

deltaT = 5.63379e-06
Mean and max Courant Numbers = 0.103696 0.197723
Time = 0.000611269

diagonal:  Solving for rho, Initial residual = 0, Final residual = 0, No Iterations 0
diagonal:  Solving for rhoUx, Initial residual = 0, Final residual = 0, No Iterations 0
diagonal:  Solving for rhoE, Initial residual = 0, Final residual = 0, No Iterations 0
ExecutionTime = 0.19 s  ClockTime = 1 s

deltaT = 5.63379e-06
Mean and max Courant Numbers = 0.103732 0.197678
Time = 0.000616902

diagonal:  Solving for rho, Initial residual = 0, Final residual = 0, No Iterations 0
diagonal:  Solving for rhoUx, Initial residual = 0, Final residual = 0, No Iterations 0
diagonal:  Solving for rhoE, Initial residual = 0, Final residual = 0, No Iterations 0
ExecutionTime = 0.2 s  ClockTime = 1 s

deltaT = 5.63379e-06
Mean and max Courant Numbers = 0.10376 0.197648
Time = 0.000622536

diagonal:  Solving for rho, Initial residual = 0, Final residual = 0, No Iterations 0
diagonal:  Solving for rhoUx, Initial residual = 0, Final residual = 0, No Iterations 0
diagonal:  Solving for rhoE, Initial residual = 0, Final residual = 0, No Iterations 0
ExecutionTime = 0.2 s  ClockTime = 1 s

deltaT = 5.63379e-06
Mean and max Courant Numbers = 0.103798 0.197623
Time = 0.00062817

diagonal:  Solving for rho, Initial residual = 0, Final residual = 0, No Iterations 0
diagonal:  Solving for rhoUx, Initial residual = 0, Final residual = 0, No Iterations 0
diagonal:  Solving for rhoE, Initial residual = 0, Final residual = 0, No Iterations 0
ExecutionTime = 0.2 s  ClockTime = 1 s

deltaT = 5.63379e-06
Mean and max Courant Numbers = 0.103837 0.197568
Time = 0.000633804

diagonal:  Solving for rho, Initial residual = 0, Final residual = 0, No Iterations 0
diagonal:  Solving for rhoUx, Initial residual = 0, Final residual = 0, No Iterations 0
diagonal:  Solving for rhoE, Initial residual = 0, Final residual = 0, No Iterations 0
ExecutionTime = 0.2 s  ClockTime = 1 s

deltaT = 5.63379e-06
Mean and max Courant Numbers = 0.103865 0.197562
Time = 0.000639438

diagonal:  Solving for rho, Initial residual = 0, Final residual = 0, No Iterations 0
diagonal:  Solving for rhoUx, Initial residual = 0, Final residual = 0, No Iterations 0
diagonal:  Solving for rhoE, Initial residual = 0, Final residual = 0, No Iterations 0
ExecutionTime = 0.2 s  ClockTime = 1 s

deltaT = 5.63379e-06
Mean and max Courant Numbers = 0.103901 0.197537
Time = 0.000645071

diagonal:  Solving for rho, Initial residual = 0, Final residual = 0, No Iterations 0
diagonal:  Solving for rhoUx, Initial residual = 0, Final residual = 0, No Iterations 0
diagonal:  Solving for rhoE, Initial residual = 0, Final residual = 0, No Iterations 0
ExecutionTime = 0.2 s  ClockTime = 1 s

deltaT = 5.63379e-06
Mean and max Courant Numbers = 0.103942 0.197484
Time = 0.000650705

diagonal:  Solving for rho, Initial residual = 0, Final residual = 0, No Iterations 0
diagonal:  Solving for rhoUx, Initial residual = 0, Final residual = 0, No Iterations 0
diagonal:  Solving for rhoE, Initial residual = 0, Final residual = 0, No Iterations 0
ExecutionTime = 0.2 s  ClockTime = 1 s

deltaT = 5.63379e-06
Mean and max Courant Numbers = 0.103971 0.197484
Time = 0.000656339

diagonal:  Solving for rho, Initial residual = 0, Final residual = 0, No Iterations 0
diagonal:  Solving for rhoUx, Initial residual = 0, Final residual = 0, No Iterations 0
diagonal:  Solving for rhoE, Initial residual = 0, Final residual = 0, No Iterations 0
ExecutionTime = 0.2 s  ClockTime = 1 s

deltaT = 5.63379e-06
Mean and max Courant Numbers = 0.104004 0.197449
Time = 0.000661973

diagonal:  Solving for rho, Initial residual = 0, Final residual = 0, No Iterations 0
diagonal:  Solving for rhoUx, Initial residual = 0, Final residual = 0, No Iterations 0
diagonal:  Solving for rhoE, Initial residual = 0, Final residual = 0, No Iterations 0
ExecutionTime = 0.2 s  ClockTime = 1 s

deltaT = 5.63379e-06
Mean and max Courant Numbers = 0.104046 0.197419
Time = 0.000667607

diagonal:  Solving for rho, Initial residual = 0, Final residual = 0, No Iterations 0
diagonal:  Solving for rhoUx, Initial residual = 0, Final residual = 0, No Iterations 0
diagonal:  Solving for rhoE, Initial residual = 0, Final residual = 0, No Iterations 0
ExecutionTime = 0.2 s  ClockTime = 1 s

deltaT = 5.63379e-06
Mean and max Courant Numbers = 0.104078 0.197401
Time = 0.00067324

diagonal:  Solving for rho, Initial residual = 0, Final residual = 0, No Iterations 0
diagonal:  Solving for rhoUx, Initial residual = 0, Final residual = 0, No Iterations 0
diagonal:  Solving for rhoE, Initial residual = 0, Final residual = 0, No Iterations 0
ExecutionTime = 0.2 s  ClockTime = 1 s

deltaT = 5.63379e-06
Mean and max Courant Numbers = 0.104108 0.197342
Time = 0.000678874

diagonal:  Solving for rho, Initial residual = 0, Final residual = 0, No Iterations 0
diagonal:  Solving for rhoUx, Initial residual = 0, Final residual = 0, No Iterations 0
diagonal:  Solving for rhoE, Initial residual = 0, Final residual = 0, No Iterations 0
ExecutionTime = 0.2 s  ClockTime = 1 s

deltaT = 5.63379e-06
Mean and max Courant Numbers = 0.10415 0.197345
Time = 0.000684508

diagonal:  Solving for rho, Initial residual = 0, Final residual = 0, No Iterations 0
diagonal:  Solving for rhoUx, Initial residual = 0, Final residual = 0, No Iterations 0
diagonal:  Solving for rhoE, Initial residual = 0, Final residual = 0, No Iterations 0
ExecutionTime = 0.22 s  ClockTime = 1 s

deltaT = 5.63379e-06
Mean and max Courant Numbers = 0.104185 0.197319
Time = 0.000690142

diagonal:  Solving for rho, Initial residual = 0, Final residual = 0, No Iterations 0
diagonal:  Solving for rhoUx, Initial residual = 0, Final residual = 0, No Iterations 0
diagonal:  Solving for rhoE, Initial residual = 0, Final residual = 0, No Iterations 0
ExecutionTime = 0.22 s  ClockTime = 1 s

deltaT = 5.63379e-06
Mean and max Courant Numbers = 0.104213 0.19728
Time = 0.000695776

diagonal:  Solving for rho, Initial residual = 0, Final residual = 0, No Iterations 0
diagonal:  Solving for rhoUx, Initial residual = 0, Final residual = 0, No Iterations 0
diagonal:  Solving for rhoE, Initial residual = 0, Final residual = 0, No Iterations 0
ExecutionTime = 0.22 s  ClockTime = 1 s

deltaT = 5.63379e-06
Mean and max Courant Numbers = 0.104253 0.197269
Time = 0.000701409

diagonal:  Solving for rho, Initial residual = 0, Final residual = 0, No Iterations 0
diagonal:  Solving for rhoUx, Initial residual = 0, Final residual = 0, No Iterations 0
diagonal:  Solving for rhoE, Initial residual = 0, Final residual = 0, No Iterations 0
ExecutionTime = 0.22 s  ClockTime = 1 s

deltaT = 5.63379e-06
Mean and max Courant Numbers = 0.104291 0.197224
Time = 0.000707043

diagonal:  Solving for rho, Initial residual = 0, Final residual = 0, No Iterations 0
diagonal:  Solving for rhoUx, Initial residual = 0, Final residual = 0, No Iterations 0
diagonal:  Solving for rhoE, Initial residual = 0, Final residual = 0, No Iterations 0
ExecutionTime = 0.22 s  ClockTime = 1 s

deltaT = 5.63379e-06
Mean and max Courant Numbers = 0.10432 0.197692
Time = 0.000712677

diagonal:  Solving for rho, Initial residual = 0, Final residual = 0, No Iterations 0
diagonal:  Solving for rhoUx, Initial residual = 0, Final residual = 0, No Iterations 0
diagonal:  Solving for rhoE, Initial residual = 0, Final residual = 0, No Iterations 0
ExecutionTime = 0.22 s  ClockTime = 1 s

deltaT = 5.63379e-06
Mean and max Courant Numbers = 0.104356 0.197858
Time = 0.000718311

diagonal:  Solving for rho, Initial residual = 0, Final residual = 0, No Iterations 0
diagonal:  Solving for rhoUx, Initial residual = 0, Final residual = 0, No Iterations 0
diagonal:  Solving for rhoE, Initial residual = 0, Final residual = 0, No Iterations 0
ExecutionTime = 0.22 s  ClockTime = 1 s

deltaT = 5.63379e-06
Mean and max Courant Numbers = 0.104395 0.197682
Time = 0.000723944

diagonal:  Solving for rho, Initial residual = 0, Final residual = 0, No Iterations 0
diagonal:  Solving for rhoUx, Initial residual = 0, Final residual = 0, No Iterations 0
diagonal:  Solving for rhoE, Initial residual = 0, Final residual = 0, No Iterations 0
ExecutionTime = 0.22 s  ClockTime = 1 s

deltaT = 5.63379e-06
Mean and max Courant Numbers = 0.104425 0.198183
Time = 0.000729578

diagonal:  Solving for rho, Initial residual = 0, Final residual = 0, No Iterations 0
diagonal:  Solving for rhoUx, Initial residual = 0, Final residual = 0, No Iterations 0
diagonal:  Solving for rhoE, Initial residual = 0, Final residual = 0, No Iterations 0
ExecutionTime = 0.22 s  ClockTime = 1 s

deltaT = 5.63379e-06
Mean and max Courant Numbers = 0.104458 0.19805
Time = 0.000735212

diagonal:  Solving for rho, Initial residual = 0, Final residual = 0, No Iterations 0
diagonal:  Solving for rhoUx, Initial residual = 0, Final residual = 0, No Iterations 0
diagonal:  Solving for rhoE, Initial residual = 0, Final residual = 0, No Iterations 0
ExecutionTime = 0.22 s  ClockTime = 1 s

deltaT = 5.63379e-06
Mean and max Courant Numbers = 0.104499 0.197902
Time = 0.000740846

diagonal:  Solving for rho, Initial residual = 0, Final residual = 0, No Iterations 0
diagonal:  Solving for rhoUx, Initial residual = 0, Final residual = 0, No Iterations 0
diagonal:  Solving for rhoE, Initial residual = 0, Final residual = 0, No Iterations 0
ExecutionTime = 0.22 s  ClockTime = 1 s

deltaT = 5.63379e-06
Mean and max Courant Numbers = 0.104529 0.19804
Time = 0.00074648

diagonal:  Solving for rho, Initial residual = 0, Final residual = 0, No Iterations 0
diagonal:  Solving for rhoUx, Initial residual = 0, Final residual = 0, No Iterations 0
diagonal:  Solving for rhoE, Initial residual = 0, Final residual = 0, No Iterations 0
ExecutionTime = 0.22 s  ClockTime = 1 s

deltaT = 5.63379e-06
Mean and max Courant Numbers = 0.104559 0.197746
Time = 0.000752113

diagonal:  Solving for rho, Initial residual = 0, Final residual = 0, No Iterations 0
diagonal:  Solving for rhoUx, Initial residual = 0, Final residual = 0, No Iterations 0
diagonal:  Solving for rhoE, Initial residual = 0, Final residual = 0, No Iterations 0
ExecutionTime = 0.24 s  ClockTime = 1 s

deltaT = 5.63379e-06
Mean and max Courant Numbers = 0.1046 0.197849
Time = 0.000757747

diagonal:  Solving for rho, Initial residual = 0, Final residual = 0, No Iterations 0
diagonal:  Solving for rhoUx, Initial residual = 0, Final residual = 0, No Iterations 0
diagonal:  Solving for rhoE, Initial residual = 0, Final residual = 0, No Iterations 0
ExecutionTime = 0.24 s  ClockTime = 1 s

deltaT = 5.63379e-06
Mean and max Courant Numbers = 0.104634 0.197698
Time = 0.000763381

diagonal:  Solving for rho, Initial residual = 0, Final residual = 0, No Iterations 0
diagonal:  Solving for rhoUx, Initial residual = 0, Final residual = 0, No Iterations 0
diagonal:  Solving for rhoE, Initial residual = 0, Final residual = 0, No Iterations 0
ExecutionTime = 0.24 s  ClockTime = 1 s

deltaT = 5.63379e-06
Mean and max Courant Numbers = 0.104663 0.19762
Time = 0.000769015

diagonal:  Solving for rho, Initial residual = 0, Final residual = 0, No Iterations 0
diagonal:  Solving for rhoUx, Initial residual = 0, Final residual = 0, No Iterations 0
diagonal:  Solving for rhoE, Initial residual = 0, Final residual = 0, No Iterations 0
ExecutionTime = 0.24 s  ClockTime = 1 s

deltaT = 5.63379e-06
Mean and max Courant Numbers = 0.1047 0.197664
Time = 0.000774649

diagonal:  Solving for rho, Initial residual = 0, Final residual = 0, No Iterations 0
diagonal:  Solving for rhoUx, Initial residual = 0, Final residual = 0, No Iterations 0
diagonal:  Solving for rhoE, Initial residual = 0, Final residual = 0, No Iterations 0
ExecutionTime = 0.24 s  ClockTime = 1 s

deltaT = 5.63379e-06
Mean and max Courant Numbers = 0.104739 0.197552
Time = 0.000780282

diagonal:  Solving for rho, Initial residual = 0, Final residual = 0, No Iterations 0
diagonal:  Solving for rhoUx, Initial residual = 0, Final residual = 0, No Iterations 0
diagonal:  Solving for rhoE, Initial residual = 0, Final residual = 0, No Iterations 0
ExecutionTime = 0.24 s  ClockTime = 1 s

deltaT = 5.63379e-06
Mean and max Courant Numbers = 0.104768 0.197594
Time = 0.000785916

diagonal:  Solving for rho, Initial residual = 0, Final residual = 0, No Iterations 0
diagonal:  Solving for rhoUx, Initial residual = 0, Final residual = 0, No Iterations 0
diagonal:  Solving for rhoE, Initial residual = 0, Final residual = 0, No Iterations 0
ExecutionTime = 0.24 s  ClockTime = 1 s

deltaT = 5.63379e-06
Mean and max Courant Numbers = 0.104803 0.197515
Time = 0.00079155

diagonal:  Solving for rho, Initial residual = 0, Final residual = 0, No Iterations 0
diagonal:  Solving for rhoUx, Initial residual = 0, Final residual = 0, No Iterations 0
diagonal:  Solving for rhoE, Initial residual = 0, Final residual = 0, No Iterations 0
ExecutionTime = 0.24 s  ClockTime = 1 s

deltaT = 5.63379e-06
Mean and max Courant Numbers = 0.104843 0.19743
Time = 0.000797184

diagonal:  Solving for rho, Initial residual = 0, Final residual = 0, No Iterations 0
diagonal:  Solving for rhoUx, Initial residual = 0, Final residual = 0, No Iterations 0
diagonal:  Solving for rhoE, Initial residual = 0, Final residual = 0, No Iterations 0
ExecutionTime = 0.24 s  ClockTime = 1 s

deltaT = 5.63379e-06
Mean and max Courant Numbers = 0.104874 0.197455
Time = 0.000802817

diagonal:  Solving for rho, Initial residual = 0, Final residual = 0, No Iterations 0
diagonal:  Solving for rhoUx, Initial residual = 0, Final residual = 0, No Iterations 0
diagonal:  Solving for rhoE, Initial residual = 0, Final residual = 0, No Iterations 0
ExecutionTime = 0.24 s  ClockTime = 1 s

deltaT = 5.63379e-06
Mean and max Courant Numbers = 0.104905 0.1974
Time = 0.000808451

diagonal:  Solving for rho, Initial residual = 0, Final residual = 0, No Iterations 0
diagonal:  Solving for rhoUx, Initial residual = 0, Final residual = 0, No Iterations 0
diagonal:  Solving for rhoE, Initial residual = 0, Final residual = 0, No Iterations 0
ExecutionTime = 0.24 s  ClockTime = 1 s

deltaT = 5.63379e-06
Mean and max Courant Numbers = 0.104947 0.197371
Time = 0.000814085

diagonal:  Solving for rho, Initial residual = 0, Final residual = 0, No Iterations 0
diagonal:  Solving for rhoUx, Initial residual = 0, Final residual = 0, No Iterations 0
diagonal:  Solving for rhoE, Initial residual = 0, Final residual = 0, No Iterations 0
ExecutionTime = 0.24 s  ClockTime = 1 s

deltaT = 5.63379e-06
Mean and max Courant Numbers = 0.104981 0.197332
Time = 0.000819719

diagonal:  Solving for rho, Initial residual = 0, Final residual = 0, No Iterations 0
diagonal:  Solving for rhoUx, Initial residual = 0, Final residual = 0, No Iterations 0
diagonal:  Solving for rhoE, Initial residual = 0, Final residual = 0, No Iterations 0
ExecutionTime = 0.26 s  ClockTime = 1 s

deltaT = 5.63379e-06
Mean and max Courant Numbers = 0.105009 0.197292
Time = 0.000825353

diagonal:  Solving for rho, Initial residual = 0, Final residual = 0, No Iterations 0
diagonal:  Solving for rhoUx, Initial residual = 0, Final residual = 0, No Iterations 0
diagonal:  Solving for rhoE, Initial residual = 0, Final residual = 0, No Iterations 0
ExecutionTime = 0.26 s  ClockTime = 1 s

deltaT = 5.63379e-06
Mean and max Courant Numbers = 0.10505 0.197253
Time = 0.000830986

diagonal:  Solving for rho, Initial residual = 0, Final residual = 0, No Iterations 0
diagonal:  Solving for rhoUx, Initial residual = 0, Final residual = 0, No Iterations 0
diagonal:  Solving for rhoE, Initial residual = 0, Final residual = 0, No Iterations 0
ExecutionTime = 0.26 s  ClockTime = 1 s

deltaT = 5.63379e-06
Mean and max Courant Numbers = 0.105087 0.197241
Time = 0.00083662

diagonal:  Solving for rho, Initial residual = 0, Final residual = 0, No Iterations 0
diagonal:  Solving for rhoUx, Initial residual = 0, Final residual = 0, No Iterations 0
diagonal:  Solving for rhoE, Initial residual = 0, Final residual = 0, No Iterations 0
ExecutionTime = 0.26 s  ClockTime = 1 s

deltaT = 5.63379e-06
Mean and max Courant Numbers = 0.105115 0.197197
Time = 0.000842254

diagonal:  Solving for rho, Initial residual = 0, Final residual = 0, No Iterations 0
diagonal:  Solving for rhoUx, Initial residual = 0, Final residual = 0, No Iterations 0
diagonal:  Solving for rhoE, Initial residual = 0, Final residual = 0, No Iterations 0
ExecutionTime = 0.26 s  ClockTime = 1 s

deltaT = 5.63379e-06
Mean and max Courant Numbers = 0.105153 0.19716
Time = 0.000847888

diagonal:  Solving for rho, Initial residual = 0, Final residual = 0, No Iterations 0
diagonal:  Solving for rhoUx, Initial residual = 0, Final residual = 0, No Iterations 0
diagonal:  Solving for rhoE, Initial residual = 0, Final residual = 0, No Iterations 0
ExecutionTime = 0.26 s  ClockTime = 1 s

deltaT = 5.63379e-06
Mean and max Courant Numbers = 0.105192 0.197152
Time = 0.000853522

diagonal:  Solving for rho, Initial residual = 0, Final residual = 0, No Iterations 0
diagonal:  Solving for rhoUx, Initial residual = 0, Final residual = 0, No Iterations 0
diagonal:  Solving for rhoE, Initial residual = 0, Final residual = 0, No Iterations 0
ExecutionTime = 0.26 s  ClockTime = 1 s

deltaT = 5.63379e-06
Mean and max Courant Numbers = 0.105221 0.197372
Time = 0.000859155

diagonal:  Solving for rho, Initial residual = 0, Final residual = 0, No Iterations 0
diagonal:  Solving for rhoUx, Initial residual = 0, Final residual = 0, No Iterations 0
diagonal:  Solving for rhoE, Initial residual = 0, Final residual = 0, No Iterations 0
ExecutionTime = 0.26 s  ClockTime = 1 s

deltaT = 5.63379e-06
Mean and max Courant Numbers = 0.105256 0.19709
Time = 0.000864789

diagonal:  Solving for rho, Initial residual = 0, Final residual = 0, No Iterations 0
diagonal:  Solving for rhoUx, Initial residual = 0, Final residual = 0, No Iterations 0
diagonal:  Solving for rhoE, Initial residual = 0, Final residual = 0, No Iterations 0
ExecutionTime = 0.26 s  ClockTime = 1 s

deltaT = 5.63379e-06
Mean and max Courant Numbers = 0.105297 0.197078
Time = 0.000870423

diagonal:  Solving for rho, Initial residual = 0, Final residual = 0, No Iterations 0
diagonal:  Solving for rhoUx, Initial residual = 0, Final residual = 0, No Iterations 0
diagonal:  Solving for rhoE, Initial residual = 0, Final residual = 0, No Iterations 0
ExecutionTime = 0.26 s  ClockTime = 1 s

deltaT = 5.63379e-06
Mean and max Courant Numbers = 0.105327 0.19761
Time = 0.000876057

diagonal:  Solving for rho, Initial residual = 0, Final residual = 0, No Iterations 0
diagonal:  Solving for rhoUx, Initial residual = 0, Final residual = 0, No Iterations 0
diagonal:  Solving for rhoE, Initial residual = 0, Final residual = 0, No Iterations 0
ExecutionTime = 0.26 s  ClockTime = 1 s

deltaT = 5.63379e-06
Mean and max Courant Numbers = 0.10536 0.197023
Time = 0.00088169

diagonal:  Solving for rho, Initial residual = 0, Final residual = 0, No Iterations 0
diagonal:  Solving for rhoUx, Initial residual = 0, Final residual = 0, No Iterations 0
diagonal:  Solving for rhoE, Initial residual = 0, Final residual = 0, No Iterations 0
ExecutionTime = 0.26 s  ClockTime = 1 s

deltaT = 5.63379e-06
Mean and max Courant Numbers = 0.105402 0.19701
Time = 0.000887324

diagonal:  Solving for rho, Initial residual = 0, Final residual = 0, No Iterations 0
diagonal:  Solving for rhoUx, Initial residual = 0, Final residual = 0, No Iterations 0
diagonal:  Solving for rhoE, Initial residual = 0, Final residual = 0, No Iterations 0
ExecutionTime = 0.27 s  ClockTime = 1 s

deltaT = 5.63379e-06
Mean and max Courant Numbers = 0.105434 0.19759
Time = 0.000892958

diagonal:  Solving for rho, Initial residual = 0, Final residual = 0, No Iterations 0
diagonal:  Solving for rhoUx, Initial residual = 0, Final residual = 0, No Iterations 0
diagonal:  Solving for rhoE, Initial residual = 0, Final residual = 0, No Iterations 0
ExecutionTime = 0.27 s  ClockTime = 1 s

deltaT = 5.63379e-06
Mean and max Courant Numbers = 0.105464 0.197333
Time = 0.000898592

diagonal:  Solving for rho, Initial residual = 0, Final residual = 0, No Iterations 0
diagonal:  Solving for rhoUx, Initial residual = 0, Final residual = 0, No Iterations 0
diagonal:  Solving for rhoE, Initial residual = 0, Final residual = 0, No Iterations 0
ExecutionTime = 0.27 s  ClockTime = 1 s

deltaT = 5.63379e-06
Mean and max Courant Numbers = 0.105507 0.196936
Time = 0.000904226

diagonal:  Solving for rho, Initial residual = 0, Final residual = 0, No Iterations 0
diagonal:  Solving for rhoUx, Initial residual = 0, Final residual = 0, No Iterations 0
diagonal:  Solving for rhoE, Initial residual = 0, Final residual = 0, No Iterations 0
ExecutionTime = 0.27 s  ClockTime = 1 s

deltaT = 5.63379e-06
Mean and max Courant Numbers = 0.105541 0.197286
Time = 0.000909859

diagonal:  Solving for rho, Initial residual = 0, Final residual = 0, No Iterations 0
diagonal:  Solving for rhoUx, Initial residual = 0, Final residual = 0, No Iterations 0
diagonal:  Solving for rhoE, Initial residual = 0, Final residual = 0, No Iterations 0
ExecutionTime = 0.27 s  ClockTime = 1 s

deltaT = 5.63379e-06
Mean and max Courant Numbers = 0.10557 0.197687
Time = 0.000915493

diagonal:  Solving for rho, Initial residual = 0, Final residual = 0, No Iterations 0
diagonal:  Solving for rhoUx, Initial residual = 0, Final residual = 0, No Iterations 0
diagonal:  Solving for rhoE, Initial residual = 0, Final residual = 0, No Iterations 0
ExecutionTime = 0.27 s  ClockTime = 1 s

deltaT = 5.63379e-06
Mean and max Courant Numbers = 0.105612 0.196974
Time = 0.000921127

diagonal:  Solving for rho, Initial residual = 0, Final residual = 0, No Iterations 0
diagonal:  Solving for rhoUx, Initial residual = 0, Final residual = 0, No Iterations 0
diagonal:  Solving for rhoE, Initial residual = 0, Final residual = 0, No Iterations 0
ExecutionTime = 0.27 s  ClockTime = 1 s

deltaT = 5.63379e-06
Mean and max Courant Numbers = 0.105649 0.197066
Time = 0.000926761

diagonal:  Solving for rho, Initial residual = 0, Final residual = 0, No Iterations 0
diagonal:  Solving for rhoUx, Initial residual = 0, Final residual = 0, No Iterations 0
diagonal:  Solving for rhoE, Initial residual = 0, Final residual = 0, No Iterations 0
ExecutionTime = 0.27 s  ClockTime = 1 s

deltaT = 5.63379e-06
Mean and max Courant Numbers = 0.105676 0.197994
Time = 0.000932395

diagonal:  Solving for rho, Initial residual = 0, Final residual = 0, No Iterations 0
diagonal:  Solving for rhoUx, Initial residual = 0, Final residual = 0, No Iterations 0
diagonal:  Solving for rhoE, Initial residual = 0, Final residual = 0, No Iterations 0
ExecutionTime = 0.27 s  ClockTime = 1 s

deltaT = 5.63379e-06
Mean and max Courant Numbers = 0.105716 0.197093
Time = 0.000938028

diagonal:  Solving for rho, Initial residual = 0, Final residual = 0, No Iterations 0
diagonal:  Solving for rhoUx, Initial residual = 0, Final residual = 0, No Iterations 0
diagonal:  Solving for rhoE, Initial residual = 0, Final residual = 0, No Iterations 0
ExecutionTime = 0.27 s  ClockTime = 1 s

deltaT = 5.63379e-06
Mean and max Courant Numbers = 0.105756 0.197112
Time = 0.000943662

diagonal:  Solving for rho, Initial residual = 0, Final residual = 0, No Iterations 0
diagonal:  Solving for rhoUx, Initial residual = 0, Final residual = 0, No Iterations 0
diagonal:  Solving for rhoE, Initial residual = 0, Final residual = 0, No Iterations 0
ExecutionTime = 0.27 s  ClockTime = 1 s

deltaT = 5.63379e-06
Mean and max Courant Numbers = 0.105784 0.198206
Time = 0.000949296

diagonal:  Solving for rho, Initial residual = 0, Final residual = 0, No Iterations 0
diagonal:  Solving for rhoUx, Initial residual = 0, Final residual = 0, No Iterations 0
diagonal:  Solving for rhoE, Initial residual = 0, Final residual = 0, No Iterations 0
ExecutionTime = 0.29 s  ClockTime = 1 s

deltaT = 5.63379e-06
Mean and max Courant Numbers = 0.105821 0.197229
Time = 0.00095493

diagonal:  Solving for rho, Initial residual = 0, Final residual = 0, No Iterations 0
diagonal:  Solving for rhoUx, Initial residual = 0, Final residual = 0, No Iterations 0
diagonal:  Solving for rhoE, Initial residual = 0, Final residual = 0, No Iterations 0
ExecutionTime = 0.29 s  ClockTime = 1 s

deltaT = 5.63379e-06
Mean and max Courant Numbers = 0.105862 0.197138
Time = 0.000960563

diagonal:  Solving for rho, Initial residual = 0, Final residual = 0, No Iterations 0
diagonal:  Solving for rhoUx, Initial residual = 0, Final residual = 0, No Iterations 0
diagonal:  Solving for rhoE, Initial residual = 0, Final residual = 0, No Iterations 0
ExecutionTime = 0.29 s  ClockTime = 1 s

deltaT = 5.63379e-06
Mean and max Courant Numbers = 0.105891 0.198299
Time = 0.000966197

diagonal:  Solving for rho, Initial residual = 0, Final residual = 0, No Iterations 0
diagonal:  Solving for rhoUx, Initial residual = 0, Final residual = 0, No Iterations 0
diagonal:  Solving for rhoE, Initial residual = 0, Final residual = 0, No Iterations 0
ExecutionTime = 0.29 s  ClockTime = 1 s

deltaT = 5.63379e-06
Mean and max Courant Numbers = 0.105926 0.197391
Time = 0.000971831

diagonal:  Solving for rho, Initial residual = 0, Final residual = 0, No Iterations 0
diagonal:  Solving for rhoUx, Initial residual = 0, Final residual = 0, No Iterations 0
diagonal:  Solving for rhoE, Initial residual = 0, Final residual = 0, No Iterations 0
ExecutionTime = 0.29 s  ClockTime = 1 s

deltaT = 5.63379e-06
Mean and max Courant Numbers = 0.105969 0.197638
Time = 0.000977465

diagonal:  Solving for rho, Initial residual = 0, Final residual = 0, No Iterations 0
diagonal:  Solving for rhoUx, Initial residual = 0, Final residual = 0, No Iterations 0
diagonal:  Solving for rhoE, Initial residual = 0, Final residual = 0, No Iterations 0
ExecutionTime = 0.29 s  ClockTime = 1 s

deltaT = 5.63379e-06
Mean and max Courant Numbers = 0.105999 0.198229
Time = 0.000983099

diagonal:  Solving for rho, Initial residual = 0, Final residual = 0, No Iterations 0
diagonal:  Solving for rhoUx, Initial residual = 0, Final residual = 0, No Iterations 0
diagonal:  Solving for rhoE, Initial residual = 0, Final residual = 0, No Iterations 0
ExecutionTime = 0.29 s  ClockTime = 1 s

deltaT = 5.63379e-06
Mean and max Courant Numbers = 0.106031 0.197629
Time = 0.000988732

diagonal:  Solving for rho, Initial residual = 0, Final residual = 0, No Iterations 0
diagonal:  Solving for rhoUx, Initial residual = 0, Final residual = 0, No Iterations 0
diagonal:  Solving for rhoE, Initial residual = 0, Final residual = 0, No Iterations 0
ExecutionTime = 0.29 s  ClockTime = 1 s

deltaT = 5.63379e-06
Mean and max Courant Numbers = 0.106074 0.197938
Time = 0.000994366

diagonal:  Solving for rho, Initial residual = 0, Final residual = 0, No Iterations 0
diagonal:  Solving for rhoUx, Initial residual = 0, Final residual = 0, No Iterations 0
diagonal:  Solving for rhoE, Initial residual = 0, Final residual = 0, No Iterations 0
ExecutionTime = 0.29 s  ClockTime = 1 s

deltaT = 5.63379e-06
Mean and max Courant Numbers = 0.106106 0.197952
Time = 0.001

diagonal:  Solving for rho, Initial residual = 0, Final residual = 0, No Iterations 0
diagonal:  Solving for rhoUx, Initial residual = 0, Final residual = 0, No Iterations 0
diagonal:  Solving for rhoE, Initial residual = 0, Final residual = 0, No Iterations 0
ExecutionTime = 0.3 s  ClockTime = 1 s

--> FOAM Warning :     functionObjects::mag mag(U) cannot find required object U of type volScalarField
--> FOAM Warning :     functionObjects::mag mag(U) cannot find required object U of type surfaceScalarField
    functionObjects::mag mag(U) writing field: mag(U)
deltaT = 5.68182e-06
Mean and max Courant Numbers = 0.107041 0.199488
Time = 0.00100568

diagonal:  Solving for rho, Initial residual = 0, Final residual = 0, No Iterations 0
diagonal:  Solving for rhoUx, Initial residual = 0, Final residual = 0, No Iterations 0
diagonal:  Solving for rhoE, Initial residual = 0, Final residual = 0, No Iterations 0
ExecutionTime = 0.3 s  ClockTime = 1 s

deltaT = 5.68182e-06
Mean and max Courant Numbers = 0.107083 0.199427
Time = 0.00101136

diagonal:  Solving for rho, Initial residual = 0, Final residual = 0, No Iterations 0
diagonal:  Solving for rhoUx, Initial residual = 0, Final residual = 0, No Iterations 0
diagonal:  Solving for rhoE, Initial residual = 0, Final residual = 0, No Iterations 0
ExecutionTime = 0.3 s  ClockTime = 1 s

deltaT = 5.68182e-06
Mean and max Courant Numbers = 0.107118 0.199228
Time = 0.00101705

diagonal:  Solving for rho, Initial residual = 0, Final residual = 0, No Iterations 0
diagonal:  Solving for rhoUx, Initial residual = 0, Final residual = 0, No Iterations 0
diagonal:  Solving for rhoE, Initial residual = 0, Final residual = 0, No Iterations 0
ExecutionTime = 0.3 s  ClockTime = 1 s

deltaT = 5.68182e-06
Mean and max Courant Numbers = 0.107146 0.199649
Time = 0.00102273

diagonal:  Solving for rho, Initial residual = 0, Final residual = 0, No Iterations 0
diagonal:  Solving for rhoUx, Initial residual = 0, Final residual = 0, No Iterations 0
diagonal:  Solving for rhoE, Initial residual = 0, Final residual = 0, No Iterations 0
ExecutionTime = 0.3 s  ClockTime = 1 s

deltaT = 5.68182e-06
Mean and max Courant Numbers = 0.107189 0.199174
Time = 0.00102841

diagonal:  Solving for rho, Initial residual = 0, Final residual = 0, No Iterations 0
diagonal:  Solving for rhoUx, Initial residual = 0, Final residual = 0, No Iterations 0
diagonal:  Solving for rhoE, Initial residual = 0, Final residual = 0, No Iterations 0
ExecutionTime = 0.32 s  ClockTime = 1 s

deltaT = 5.68182e-06
Mean and max Courant Numbers = 0.107226 0.199217
Time = 0.00103409

diagonal:  Solving for rho, Initial residual = 0, Final residual = 0, No Iterations 0
diagonal:  Solving for rhoUx, Initial residual = 0, Final residual = 0, No Iterations 0
diagonal:  Solving for rhoE, Initial residual = 0, Final residual = 0, No Iterations 0
ExecutionTime = 0.32 s  ClockTime = 1 s

deltaT = 5.68182e-06
Mean and max Courant Numbers = 0.107254 0.199782
Time = 0.00103977

diagonal:  Solving for rho, Initial residual = 0, Final residual = 0, No Iterations 0
diagonal:  Solving for rhoUx, Initial residual = 0, Final residual = 0, No Iterations 0
diagonal:  Solving for rhoE, Initial residual = 0, Final residual = 0, No Iterations 0
ExecutionTime = 0.32 s  ClockTime = 1 s

deltaT = 5.68182e-06
Mean and max Courant Numbers = 0.107294 0.199045
Time = 0.00104545

diagonal:  Solving for rho, Initial residual = 0, Final residual = 0, No Iterations 0
diagonal:  Solving for rhoUx, Initial residual = 0, Final residual = 0, No Iterations 0
diagonal:  Solving for rhoE, Initial residual = 0, Final residual = 0, No Iterations 0
ExecutionTime = 0.32 s  ClockTime = 1 s

deltaT = 5.68182e-06
Mean and max Courant Numbers = 0.107334 0.199106
Time = 0.00105114

diagonal:  Solving for rho, Initial residual = 0, Final residual = 0, No Iterations 0
diagonal:  Solving for rhoUx, Initial residual = 0, Final residual = 0, No Iterations 0
diagonal:  Solving for rhoE, Initial residual = 0, Final residual = 0, No Iterations 0
ExecutionTime = 0.32 s  ClockTime = 1 s

deltaT = 5.68182e-06
Mean and max Courant Numbers = 0.107362 0.199849
Time = 0.00105682

diagonal:  Solving for rho, Initial residual = 0, Final residual = 0, No Iterations 0
diagonal:  Solving for rhoUx, Initial residual = 0, Final residual = 0, No Iterations 0
diagonal:  Solving for rhoE, Initial residual = 0, Final residual = 0, No Iterations 0
ExecutionTime = 0.32 s  ClockTime = 1 s

deltaT = 5.68182e-06
Mean and max Courant Numbers = 0.1074 0.199021
Time = 0.0010625

diagonal:  Solving for rho, Initial residual = 0, Final residual = 0, No Iterations 0
diagonal:  Solving for rhoUx, Initial residual = 0, Final residual = 0, No Iterations 0
diagonal:  Solving for rhoE, Initial residual = 0, Final residual = 0, No Iterations 0
ExecutionTime = 0.32 s  ClockTime = 1 s

deltaT = 5.68182e-06
Mean and max Courant Numbers = 0.107441 0.198974
Time = 0.00106818

diagonal:  Solving for rho, Initial residual = 0, Final residual = 0, No Iterations 0
diagonal:  Solving for rhoUx, Initial residual = 0, Final residual = 0, No Iterations 0
diagonal:  Solving for rhoE, Initial residual = 0, Final residual = 0, No Iterations 0
ExecutionTime = 0.32 s  ClockTime = 1 s

deltaT = 5.68182e-06
Mean and max Courant Numbers = 0.107469 0.199814
Time = 0.00107386

diagonal:  Solving for rho, Initial residual = 0, Final residual = 0, No Iterations 0
diagonal:  Solving for rhoUx, Initial residual = 0, Final residual = 0, No Iterations 0
diagonal:  Solving for rhoE, Initial residual = 0, Final residual = 0, No Iterations 0
ExecutionTime = 0.32 s  ClockTime = 1 s

deltaT = 5.68182e-06
Mean and max Courant Numbers = 0.107505 0.19891
Time = 0.00107955

diagonal:  Solving for rho, Initial residual = 0, Final residual = 0, No Iterations 0
diagonal:  Solving for rhoUx, Initial residual = 0, Final residual = 0, No Iterations 0
diagonal:  Solving for rhoE, Initial residual = 0, Final residual = 0, No Iterations 0
ExecutionTime = 0.32 s  ClockTime = 1 s

deltaT = 5.68182e-06
Mean and max Courant Numbers = 0.107548 0.198875
Time = 0.00108523

diagonal:  Solving for rho, Initial residual = 0, Final residual = 0, No Iterations 0
diagonal:  Solving for rhoUx, Initial residual = 0, Final residual = 0, No Iterations 0
diagonal:  Solving for rhoE, Initial residual = 0, Final residual = 0, No Iterations 0
ExecutionTime = 0.32 s  ClockTime = 1 s

deltaT = 5.68182e-06
Mean and max Courant Numbers = 0.107578 0.19966
Time = 0.00109091

diagonal:  Solving for rho, Initial residual = 0, Final residual = 0, No Iterations 0
diagonal:  Solving for rhoUx, Initial residual = 0, Final residual = 0, No Iterations 0
diagonal:  Solving for rhoE, Initial residual = 0, Final residual = 0, No Iterations 0
ExecutionTime = 0.32 s  ClockTime = 1 s

deltaT = 5.68182e-06
Mean and max Courant Numbers = 0.107611 0.198817
Time = 0.00109659

diagonal:  Solving for rho, Initial residual = 0, Final residual = 0, No Iterations 0
diagonal:  Solving for rhoUx, Initial residual = 0, Final residual = 0, No Iterations 0
diagonal:  Solving for rhoE, Initial residual = 0, Final residual = 0, No Iterations 0
ExecutionTime = 0.32 s  ClockTime = 1 s

deltaT = 5.68182e-06
Mean and max Courant Numbers = 0.107655 0.198801
Time = 0.00110227

diagonal:  Solving for rho, Initial residual = 0, Final residual = 0, No Iterations 0
diagonal:  Solving for rhoUx, Initial residual = 0, Final residual = 0, No Iterations 0
diagonal:  Solving for rhoE, Initial residual = 0, Final residual = 0, No Iterations 0
[...]
diagonal:  Solving for rhoE, Initial residual = 0, Final residual = 0, No Iterations 0
ExecutionTime = 1.7 s  ClockTime = 2 s

deltaT = 5.68182e-06
Mean and max Courant Numbers = 0.142846 0.199416
Time = 0.00672159

diagonal:  Solving for rho, Initial residual = 0, Final residual = 0, No Iterations 0
diagonal:  Solving for rhoUx, Initial residual = 0, Final residual = 0, No Iterations 0
diagonal:  Solving for rhoE, Initial residual = 0, Final residual = 0, No Iterations 0
ExecutionTime = 1.7 s  ClockTime = 2 s

deltaT = 5.68182e-06
Mean and max Courant Numbers = 0.142882 0.199508
Time = 0.00672727

diagonal:  Solving for rho, Initial residual = 0, Final residual = 0, No Iterations 0
diagonal:  Solving for rhoUx, Initial residual = 0, Final residual = 0, No Iterations 0
diagonal:  Solving for rhoE, Initial residual = 0, Final residual = 0, No Iterations 0
ExecutionTime = 1.72 s  ClockTime = 2 s

deltaT = 5.68182e-06
Mean and max Courant Numbers = 0.142924 0.199297
Time = 0.00673295

diagonal:  Solving for rho, Initial residual = 0, Final residual = 0, No Iterations 0
diagonal:  Solving for rhoUx, Initial residual = 0, Final residual = 0, No Iterations 0
diagonal:  Solving for rhoE, Initial residual = 0, Final residual = 0, No Iterations 0
ExecutionTime = 1.72 s  ClockTime = 2 s

deltaT = 5.68182e-06
Mean and max Courant Numbers = 0.142953 0.199602
Time = 0.00673864

diagonal:  Solving for rho, Initial residual = 0, Final residual = 0, No Iterations 0
diagonal:  Solving for rhoUx, Initial residual = 0, Final residual = 0, No Iterations 0
diagonal:  Solving for rhoE, Initial residual = 0, Final residual = 0, No Iterations 0
ExecutionTime = 1.72 s  ClockTime = 2 s

deltaT = 5.68182e-06
Mean and max Courant Numbers = 0.142986 0.199347
Time = 0.00674432

diagonal:  Solving for rho, Initial residual = 0, Final residual = 0, No Iterations 0
diagonal:  Solving for rhoUx, Initial residual = 0, Final residual = 0, No Iterations 0
diagonal:  Solving for rhoE, Initial residual = 0, Final residual = 0, No Iterations 0
ExecutionTime = 1.72 s  ClockTime = 2 s

deltaT = 5.68182e-06
Mean and max Courant Numbers = 0.143029 0.199454
Time = 0.00675

diagonal:  Solving for rho, Initial residual = 0, Final residual = 0, No Iterations 0
diagonal:  Solving for rhoUx, Initial residual = 0, Final residual = 0, No Iterations 0
diagonal:  Solving for rhoE, Initial residual = 0, Final residual = 0, No Iterations 0
ExecutionTime = 1.72 s  ClockTime = 2 s

deltaT = 5.68182e-06
Mean and max Courant Numbers = 0.143061 0.199358
Time = 0.00675568

diagonal:  Solving for rho, Initial residual = 0, Final residual = 0, No Iterations 0
diagonal:  Solving for rhoUx, Initial residual = 0, Final residual = 0, No Iterations 0
diagonal:  Solving for rhoE, Initial residual = 0, Final residual = 0, No Iterations 0
ExecutionTime = 1.72 s  ClockTime = 2 s

deltaT = 5.68182e-06
Mean and max Courant Numbers = 0.143092 0.199181
Time = 0.00676136

diagonal:  Solving for rho, Initial residual = 0, Final residual = 0, No Iterations 0
diagonal:  Solving for rhoUx, Initial residual = 0, Final residual = 0, No Iterations 0
diagonal:  Solving for rhoE, Initial residual = 0, Final residual = 0, No Iterations 0
ExecutionTime = 1.72 s  ClockTime = 2 s

deltaT = 5.68182e-06
Mean and max Courant Numbers = 0.143134 0.199307
Time = 0.00676705

diagonal:  Solving for rho, Initial residual = 0, Final residual = 0, No Iterations 0
diagonal:  Solving for rhoUx, Initial residual = 0, Final residual = 0, No Iterations 0
diagonal:  Solving for rhoE, Initial residual = 0, Final residual = 0, No Iterations 0
ExecutionTime = 1.72 s  ClockTime = 2 s

deltaT = 5.68182e-06
Mean and max Courant Numbers = 0.143169 0.19918
Time = 0.00677273

diagonal:  Solving for rho, Initial residual = 0, Final residual = 0, No Iterations 0
diagonal:  Solving for rhoUx, Initial residual = 0, Final residual = 0, No Iterations 0
diagonal:  Solving for rhoE, Initial residual = 0, Final residual = 0, No Iterations 0
ExecutionTime = 1.72 s  ClockTime = 2 s

deltaT = 5.68182e-06
Mean and max Courant Numbers = 0.143198 0.199265
Time = 0.00677841

diagonal:  Solving for rho, Initial residual = 0, Final residual = 0, No Iterations 0
diagonal:  Solving for rhoUx, Initial residual = 0, Final residual = 0, No Iterations 0
diagonal:  Solving for rhoE, Initial residual = 0, Final residual = 0, No Iterations 0
ExecutionTime = 1.72 s  ClockTime = 2 s

deltaT = 5.68182e-06
Mean and max Courant Numbers = 0.14324 0.199206
Time = 0.00678409

diagonal:  Solving for rho, Initial residual = 0, Final residual = 0, No Iterations 0
diagonal:  Solving for rhoUx, Initial residual = 0, Final residual = 0, No Iterations 0
diagonal:  Solving for rhoE, Initial residual = 0, Final residual = 0, No Iterations 0
ExecutionTime = 1.72 s  ClockTime = 2 s

deltaT = 5.68182e-06
Mean and max Courant Numbers = 0.143277 0.199104
Time = 0.00678977

diagonal:  Solving for rho, Initial residual = 0, Final residual = 0, No Iterations 0
diagonal:  Solving for rhoUx, Initial residual = 0, Final residual = 0, No Iterations 0
diagonal:  Solving for rhoE, Initial residual = 0, Final residual = 0, No Iterations 0
ExecutionTime = 1.72 s  ClockTime = 2 s

deltaT = 5.68182e-06
Mean and max Courant Numbers = 0.143304 0.199207
Time = 0.00679545

diagonal:  Solving for rho, Initial residual = 0, Final residual = 0, No Iterations 0
diagonal:  Solving for rhoUx, Initial residual = 0, Final residual = 0, No Iterations 0
diagonal:  Solving for rhoE, Initial residual = 0, Final residual = 0, No Iterations 0
ExecutionTime = 1.74 s  ClockTime = 2 s

deltaT = 5.68182e-06
Mean and max Courant Numbers = 0.143345 0.199128
Time = 0.00680114

diagonal:  Solving for rho, Initial residual = 0, Final residual = 0, No Iterations 0
diagonal:  Solving for rhoUx, Initial residual = 0, Final residual = 0, No Iterations 0
diagonal:  Solving for rhoE, Initial residual = 0, Final residual = 0, No Iterations 0
ExecutionTime = 1.74 s  ClockTime = 2 s

deltaT = 5.68182e-06
Mean and max Courant Numbers = 0.143384 0.19916
Time = 0.00680682

diagonal:  Solving for rho, Initial residual = 0, Final residual = 0, No Iterations 0
diagonal:  Solving for rhoUx, Initial residual = 0, Final residual = 0, No Iterations 0
diagonal:  Solving for rhoE, Initial residual = 0, Final residual = 0, No Iterations 0
ExecutionTime = 1.74 s  ClockTime = 2 s

deltaT = 5.68182e-06
Mean and max Courant Numbers = 0.143412 0.19912
Time = 0.0068125

diagonal:  Solving for rho, Initial residual = 0, Final residual = 0, No Iterations 0
diagonal:  Solving for rhoUx, Initial residual = 0, Final residual = 0, No Iterations 0
diagonal:  Solving for rhoE, Initial residual = 0, Final residual = 0, No Iterations 0
ExecutionTime = 1.74 s  ClockTime = 2 s

deltaT = 5.68182e-06
Mean and max Courant Numbers = 0.143449 0.199063
Time = 0.00681818

diagonal:  Solving for rho, Initial residual = 0, Final residual = 0, No Iterations 0
diagonal:  Solving for rhoUx, Initial residual = 0, Final residual = 0, No Iterations 0
diagonal:  Solving for rhoE, Initial residual = 0, Final residual = 0, No Iterations 0
ExecutionTime = 1.74 s  ClockTime = 2 s

deltaT = 5.68182e-06
Mean and max Courant Numbers = 0.14349 0.199111
Time = 0.00682386

diagonal:  Solving for rho, Initial residual = 0, Final residual = 0, No Iterations 0
diagonal:  Solving for rhoUx, Initial residual = 0, Final residual = 0, No Iterations 0
diagonal:  Solving for rhoE, Initial residual = 0, Final residual = 0, No Iterations 0
ExecutionTime = 1.74 s  ClockTime = 2 s

deltaT = 5.68182e-06
Mean and max Courant Numbers = 0.14352 0.199054
Time = 0.00682955

diagonal:  Solving for rho, Initial residual = 0, Final residual = 0, No Iterations 0
diagonal:  Solving for rhoUx, Initial residual = 0, Final residual = 0, No Iterations 0
diagonal:  Solving for rhoE, Initial residual = 0, Final residual = 0, No Iterations 0
ExecutionTime = 1.74 s  ClockTime = 2 s

deltaT = 5.68182e-06
Mean and max Courant Numbers = 0.143554 0.19905
Time = 0.00683523

diagonal:  Solving for rho, Initial residual = 0, Final residual = 0, No Iterations 0
diagonal:  Solving for rhoUx, Initial residual = 0, Final residual = 0, No Iterations 0
diagonal:  Solving for rhoE, Initial residual = 0, Final residual = 0, No Iterations 0
ExecutionTime = 1.74 s  ClockTime = 2 s

deltaT = 5.68182e-06
Mean and max Courant Numbers = 0.143597 0.199027
Time = 0.00684091

diagonal:  Solving for rho, Initial residual = 0, Final residual = 0, No Iterations 0
diagonal:  Solving for rhoUx, Initial residual = 0, Final residual = 0, No Iterations 0
diagonal:  Solving for rhoE, Initial residual = 0, Final residual = 0, No Iterations 0
ExecutionTime = 1.74 s  ClockTime = 2 s

deltaT = 5.68182e-06
Mean and max Courant Numbers = 0.143628 0.198995
Time = 0.00684659

diagonal:  Solving for rho, Initial residual = 0, Final residual = 0, No Iterations 0
diagonal:  Solving for rhoUx, Initial residual = 0, Final residual = 0, No Iterations 0
diagonal:  Solving for rhoE, Initial residual = 0, Final residual = 0, No Iterations 0
ExecutionTime = 1.74 s  ClockTime = 2 s

deltaT = 5.68182e-06
Mean and max Courant Numbers = 0.143659 0.198993
Time = 0.00685227

diagonal:  Solving for rho, Initial residual = 0, Final residual = 0, No Iterations 0
diagonal:  Solving for rhoUx, Initial residual = 0, Final residual = 0, No Iterations 0
diagonal:  Solving for rhoE, Initial residual = 0, Final residual = 0, No Iterations 0
ExecutionTime = 1.74 s  ClockTime = 2 s

deltaT = 5.68182e-06
Mean and max Courant Numbers = 0.143703 0.198958
Time = 0.00685795

diagonal:  Solving for rho, Initial residual = 0, Final residual = 0, No Iterations 0
diagonal:  Solving for rhoUx, Initial residual = 0, Final residual = 0, No Iterations 0
diagonal:  Solving for rhoE, Initial residual = 0, Final residual = 0, No Iterations 0
ExecutionTime = 1.74 s  ClockTime = 2 s

deltaT = 5.68182e-06
Mean and max Courant Numbers = 0.143735 0.198924
Time = 0.00686364

diagonal:  Solving for rho, Initial residual = 0, Final residual = 0, No Iterations 0
diagonal:  Solving for rhoUx, Initial residual = 0, Final residual = 0, No Iterations 0
diagonal:  Solving for rhoE, Initial residual = 0, Final residual = 0, No Iterations 0
ExecutionTime = 1.75 s  ClockTime = 2 s

deltaT = 5.68182e-06
Mean and max Courant Numbers = 0.143765 0.198912
Time = 0.00686932

diagonal:  Solving for rho, Initial residual = 0, Final residual = 0, No Iterations 0
diagonal:  Solving for rhoUx, Initial residual = 0, Final residual = 0, No Iterations 0
diagonal:  Solving for rhoE, Initial residual = 0, Final residual = 0, No Iterations 0
ExecutionTime = 1.75 s  ClockTime = 2 s

deltaT = 5.68182e-06
Mean and max Courant Numbers = 0.143809 0.198895
Time = 0.006875

diagonal:  Solving for rho, Initial residual = 0, Final residual = 0, No Iterations 0
diagonal:  Solving for rhoUx, Initial residual = 0, Final residual = 0, No Iterations 0
diagonal:  Solving for rhoE, Initial residual = 0, Final residual = 0, No Iterations 0
ExecutionTime = 1.75 s  ClockTime = 2 s

deltaT = 5.68182e-06
Mean and max Courant Numbers = 0.143843 0.198856
Time = 0.00688068

diagonal:  Solving for rho, Initial residual = 0, Final residual = 0, No Iterations 0
diagonal:  Solving for rhoUx, Initial residual = 0, Final residual = 0, No Iterations 0
diagonal:  Solving for rhoE, Initial residual = 0, Final residual = 0, No Iterations 0
ExecutionTime = 1.75 s  ClockTime = 2 s

deltaT = 5.68182e-06
Mean and max Courant Numbers = 0.143873 0.198845
Time = 0.00688636

diagonal:  Solving for rho, Initial residual = 0, Final residual = 0, No Iterations 0
diagonal:  Solving for rhoUx, Initial residual = 0, Final residual = 0, No Iterations 0
diagonal:  Solving for rhoE, Initial residual = 0, Final residual = 0, No Iterations 0
ExecutionTime = 1.75 s  ClockTime = 2 s

deltaT = 5.68182e-06
Mean and max Courant Numbers = 0.143914 0.198829
Time = 0.00689205

diagonal:  Solving for rho, Initial residual = 0, Final residual = 0, No Iterations 0
diagonal:  Solving for rhoUx, Initial residual = 0, Final residual = 0, No Iterations 0
diagonal:  Solving for rhoE, Initial residual = 0, Final residual = 0, No Iterations 0
ExecutionTime = 1.75 s  ClockTime = 2 s

deltaT = 5.68182e-06
Mean and max Courant Numbers = 0.143952 0.198792
Time = 0.00689773

diagonal:  Solving for rho, Initial residual = 0, Final residual = 0, No Iterations 0
diagonal:  Solving for rhoUx, Initial residual = 0, Final residual = 0, No Iterations 0
diagonal:  Solving for rhoE, Initial residual = 0, Final residual = 0, No Iterations 0
ExecutionTime = 1.75 s  ClockTime = 2 s

deltaT = 5.68182e-06
Mean and max Courant Numbers = 0.14398 0.19879
Time = 0.00690341

diagonal:  Solving for rho, Initial residual = 0, Final residual = 0, No Iterations 0
diagonal:  Solving for rhoUx, Initial residual = 0, Final residual = 0, No Iterations 0
diagonal:  Solving for rhoE, Initial residual = 0, Final residual = 0, No Iterations 0
ExecutionTime = 1.75 s  ClockTime = 2 s

deltaT = 5.68182e-06
Mean and max Courant Numbers = 0.14402 0.19877
Time = 0.00690909

diagonal:  Solving for rho, Initial residual = 0, Final residual = 0, No Iterations 0
diagonal:  Solving for rhoUx, Initial residual = 0, Final residual = 0, No Iterations 0
diagonal:  Solving for rhoE, Initial residual = 0, Final residual = 0, No Iterations 0
ExecutionTime = 1.75 s  ClockTime = 2 s

deltaT = 5.68182e-06
Mean and max Courant Numbers = 0.144061 0.19873
Time = 0.00691477

diagonal:  Solving for rho, Initial residual = 0, Final residual = 0, No Iterations 0
diagonal:  Solving for rhoUx, Initial residual = 0, Final residual = 0, No Iterations 0
diagonal:  Solving for rhoE, Initial residual = 0, Final residual = 0, No Iterations 0
ExecutionTime = 1.75 s  ClockTime = 2 s

deltaT = 5.68182e-06
Mean and max Courant Numbers = 0.144089 0.198733
Time = 0.00692045

diagonal:  Solving for rho, Initial residual = 0, Final residual = 0, No Iterations 0
diagonal:  Solving for rhoUx, Initial residual = 0, Final residual = 0, No Iterations 0
diagonal:  Solving for rhoE, Initial residual = 0, Final residual = 0, No Iterations 0
ExecutionTime = 1.75 s  ClockTime = 2 s

deltaT = 5.68182e-06
Mean and max Courant Numbers = 0.144126 0.198706
Time = 0.00692614

diagonal:  Solving for rho, Initial residual = 0, Final residual = 0, No Iterations 0
diagonal:  Solving for rhoUx, Initial residual = 0, Final residual = 0, No Iterations 0
diagonal:  Solving for rhoE, Initial residual = 0, Final residual = 0, No Iterations 0
ExecutionTime = 1.75 s  ClockTime = 2 s

deltaT = 5.68182e-06
Mean and max Courant Numbers = 0.144168 0.198683
Time = 0.00693182

diagonal:  Solving for rho, Initial residual = 0, Final residual = 0, No Iterations 0
diagonal:  Solving for rhoUx, Initial residual = 0, Final residual = 0, No Iterations 0
diagonal:  Solving for rhoE, Initial residual = 0, Final residual = 0, No Iterations 0
ExecutionTime = 1.77 s  ClockTime = 2 s

deltaT = 5.68182e-06
Mean and max Courant Numbers = 0.144198 0.19868
Time = 0.0069375

diagonal:  Solving for rho, Initial residual = 0, Final residual = 0, No Iterations 0
diagonal:  Solving for rhoUx, Initial residual = 0, Final residual = 0, No Iterations 0
diagonal:  Solving for rhoE, Initial residual = 0, Final residual = 0, No Iterations 0
ExecutionTime = 1.77 s  ClockTime = 2 s

deltaT = 5.68182e-06
Mean and max Courant Numbers = 0.144233 0.198649
Time = 0.00694318

diagonal:  Solving for rho, Initial residual = 0, Final residual = 0, No Iterations 0
diagonal:  Solving for rhoUx, Initial residual = 0, Final residual = 0, No Iterations 0
diagonal:  Solving for rhoE, Initial residual = 0, Final residual = 0, No Iterations 0
ExecutionTime = 1.77 s  ClockTime = 2 s

deltaT = 5.68182e-06
Mean and max Courant Numbers = 0.144276 0.198701
Time = 0.00694886

diagonal:  Solving for rho, Initial residual = 0, Final residual = 0, No Iterations 0
diagonal:  Solving for rhoUx, Initial residual = 0, Final residual = 0, No Iterations 0
diagonal:  Solving for rhoE, Initial residual = 0, Final residual = 0, No Iterations 0
ExecutionTime = 1.77 s  ClockTime = 2 s

deltaT = 5.68182e-06
Mean and max Courant Numbers = 0.144307 0.198862
Time = 0.00695455

diagonal:  Solving for rho, Initial residual = 0, Final residual = 0, No Iterations 0
diagonal:  Solving for rhoUx, Initial residual = 0, Final residual = 0, No Iterations 0
diagonal:  Solving for rhoE, Initial residual = 0, Final residual = 0, No Iterations 0
ExecutionTime = 1.77 s  ClockTime = 2 s

deltaT = 5.68182e-06
Mean and max Courant Numbers = 0.14434 0.198787
Time = 0.00696023

diagonal:  Solving for rho, Initial residual = 0, Final residual = 0, No Iterations 0
diagonal:  Solving for rhoUx, Initial residual = 0, Final residual = 0, No Iterations 0
diagonal:  Solving for rhoE, Initial residual = 0, Final residual = 0, No Iterations 0
ExecutionTime = 1.77 s  ClockTime = 2 s

deltaT = 5.68182e-06
Mean and max Courant Numbers = 0.144383 0.19935
Time = 0.00696591

diagonal:  Solving for rho, Initial residual = 0, Final residual = 0, No Iterations 0
diagonal:  Solving for rhoUx, Initial residual = 0, Final residual = 0, No Iterations 0
diagonal:  Solving for rhoE, Initial residual = 0, Final residual = 0, No Iterations 0
ExecutionTime = 1.77 s  ClockTime = 2 s

deltaT = 5.68182e-06
Mean and max Courant Numbers = 0.144417 0.199374
Time = 0.00697159

diagonal:  Solving for rho, Initial residual = 0, Final residual = 0, No Iterations 0
diagonal:  Solving for rhoUx, Initial residual = 0, Final residual = 0, No Iterations 0
diagonal:  Solving for rhoE, Initial residual = 0, Final residual = 0, No Iterations 0
ExecutionTime = 1.77 s  ClockTime = 2 s

deltaT = 5.68182e-06
Mean and max Courant Numbers = 0.144446 0.199343
Time = 0.00697727

diagonal:  Solving for rho, Initial residual = 0, Final residual = 0, No Iterations 0
diagonal:  Solving for rhoUx, Initial residual = 0, Final residual = 0, No Iterations 0
diagonal:  Solving for rhoE, Initial residual = 0, Final residual = 0, No Iterations 0
ExecutionTime = 1.77 s  ClockTime = 2 s

deltaT = 5.68182e-06
Mean and max Courant Numbers = 0.144488 0.199589
Time = 0.00698295

diagonal:  Solving for rho, Initial residual = 0, Final residual = 0, No Iterations 0
diagonal:  Solving for rhoUx, Initial residual = 0, Final residual = 0, No Iterations 0
diagonal:  Solving for rhoE, Initial residual = 0, Final residual = 0, No Iterations 0
ExecutionTime = 1.77 s  ClockTime = 2 s

deltaT = 5.68182e-06
Mean and max Courant Numbers = 0.144524 0.199331
Time = 0.00698864

diagonal:  Solving for rho, Initial residual = 0, Final residual = 0, No Iterations 0
diagonal:  Solving for rhoUx, Initial residual = 0, Final residual = 0, No Iterations 0
diagonal:  Solving for rhoE, Initial residual = 0, Final residual = 0, No Iterations 0
ExecutionTime = 1.77 s  ClockTime = 2 s

deltaT = 5.68182e-06
Mean and max Courant Numbers = 0.144553 0.199493
Time = 0.00699432

diagonal:  Solving for rho, Initial residual = 0, Final residual = 0, No Iterations 0
diagonal:  Solving for rhoUx, Initial residual = 0, Final residual = 0, No Iterations 0
diagonal:  Solving for rhoE, Initial residual = 0, Final residual = 0, No Iterations 0
ExecutionTime = 1.77 s  ClockTime = 2 s

deltaT = 5.68182e-06
Mean and max Courant Numbers = 0.144594 0.199365
Time = 0.007

diagonal:  Solving for rho, Initial residual = 0, Final residual = 0, No Iterations 0
diagonal:  Solving for rhoUx, Initial residual = 0, Final residual = 0, No Iterations 0
diagonal:  Solving for rhoE, Initial residual = 0, Final residual = 0, No Iterations 0
ExecutionTime = 1.78 s  ClockTime = 2 s

--> FOAM Warning :     functionObjects::mag mag(U) cannot find required object U of type volScalarField
--> FOAM Warning :     functionObjects::mag mag(U) cannot find required object U of type surfaceScalarField
    functionObjects::mag mag(U) writing field: mag(U)
End

