/*---------------------------------------------------------------------------*\
  =========                 |
  \\      /  F ield         | OpenFOAM: The Open Source CFD Toolbox
   \\    /   O peration     | Website:  https://openfoam.org
    \\  /    A nd           | Version:  7
     \\/     M anipulation  |
\*---------------------------------------------------------------------------*/
Build  : 7-1ff648926f77
Exec   : rhoCentralFoam
Date   : Jun 24 2020
Time   : 01:34:06
Host   : "DESKTOP-KF81SG4"
PID    : 5529
I/O    : uncollated
Case   : /home/anthonygay1812/OpenFOAM/Working/shockTube
nProcs : 1
sigFpe : Enabling floating point exception trapping (FOAM_SIGFPE).
fileModificationChecking : Monitoring run-time modified files using timeStampMaster (fileModificationSkew 10)
allowSystemOperations : Allowing user-supplied system call operations

// * * * * * * * * * * * * * * * * * * * * * * * * * * * * * * * * * * * * * //
Create time

Create mesh for time = 0

Reading thermophysical properties

Selecting thermodynamics package 
{
    type            hePsiThermo;
    mixture         pureMixture;
    transport       const;
    thermo          hConst;
    equationOfState perfectGas;
    specie          specie;
    energy          sensibleInternalEnergy;
}

Using dynamicCode for patch sides on field p at line 1030 in "/home/anthonygay1812/OpenFOAM/Working/shockTube/0/p.boundaryField.sides"
Reading field U

Creating turbulence model

Selecting turbulence model type laminar
Selecting laminar stress model Stokes
fluxScheme: Kurganov

Starting time loop

deltaT = 1.19904e-06
Mean and max Courant Numbers = 0.0212544 0.0224376
Time = 1.19904e-06

diagonal:  Solving for rho, Initial residual = 0, Final residual = 0, No Iterations 0
diagonal:  Solving for rhoUx, Initial residual = 0, Final residual = 0, No Iterations 0
diagonal:  Solving for rhoE, Initial residual = 0, Final residual = 0, No Iterations 0
ExecutionTime = 0.04 s  ClockTime = 0 s

deltaT = 1.43712e-06
Mean and max Courant Numbers = 0.0254882 0.0314102
Time = 2.63616e-06

diagonal:  Solving for rho, Initial residual = 0, Final residual = 0, No Iterations 0
diagonal:  Solving for rhoUx, Initial residual = 0, Final residual = 0, No Iterations 0
diagonal:  Solving for rhoE, Initial residual = 0, Final residual = 0, No Iterations 0
ExecutionTime = 0.04 s  ClockTime = 0 s

deltaT = 1.72256e-06
Mean and max Courant Numbers = 0.030552 0.0370396
Time = 4.35873e-06

diagonal:  Solving for rho, Initial residual = 0, Final residual = 0, No Iterations 0
diagonal:  Solving for rhoUx, Initial residual = 0, Final residual = 0, No Iterations 0
diagonal:  Solving for rhoE, Initial residual = 0, Final residual = 0, No Iterations 0
ExecutionTime = 0.04 s  ClockTime = 0 s

deltaT = 2.06565e-06
Mean and max Courant Numbers = 0.0366493 0.0486711
Time = 6.42437e-06

diagonal:  Solving for rho, Initial residual = 0, Final residual = 0, No Iterations 0
diagonal:  Solving for rhoUx, Initial residual = 0, Final residual = 0, No Iterations 0
diagonal:  Solving for rhoE, Initial residual = 0, Final residual = 0, No Iterations 0
ExecutionTime = 0.04 s  ClockTime = 0 s

deltaT = 2.47774e-06
Mean and max Courant Numbers = 0.0439763 0.0632666
Time = 8.90212e-06

diagonal:  Solving for rho, Initial residual = 0, Final residual = 0, No Iterations 0
diagonal:  Solving for rhoUx, Initial residual = 0, Final residual = 0, No Iterations 0
diagonal:  Solving for rhoE, Initial residual = 0, Final residual = 0, No Iterations 0
ExecutionTime = 0.04 s  ClockTime = 0 s

deltaT = 2.96736e-06
Mean and max Courant Numbers = 0.0526852 0.0810688
Time = 1.18695e-05

diagonal:  Solving for rho, Initial residual = 0, Final residual = 0, No Iterations 0
diagonal:  Solving for rhoUx, Initial residual = 0, Final residual = 0, No Iterations 0
diagonal:  Solving for rhoE, Initial residual = 0, Final residual = 0, No Iterations 0
ExecutionTime = 0.04 s  ClockTime = 0 s

deltaT = 3.55443e-06
Mean and max Courant Numbers = 0.0631316 0.10217
Time = 1.54239e-05

diagonal:  Solving for rho, Initial residual = 0, Final residual = 0, No Iterations 0
diagonal:  Solving for rhoUx, Initial residual = 0, Final residual = 0, No Iterations 0
diagonal:  Solving for rhoE, Initial residual = 0, Final residual = 0, No Iterations 0
ExecutionTime = 0.04 s  ClockTime = 0 s

deltaT = 4.24386e-06
Mean and max Courant Numbers = 0.0754043 0.125991
Time = 1.96678e-05

diagonal:  Solving for rho, Initial residual = 0, Final residual = 0, No Iterations 0
diagonal:  Solving for rhoUx, Initial residual = 0, Final residual = 0, No Iterations 0
diagonal:  Solving for rhoE, Initial residual = 0, Final residual = 0, No Iterations 0
ExecutionTime = 0.04 s  ClockTime = 0 s

deltaT = 4.90166e-06
Mean and max Courant Numbers = 0.0871256 0.14806
Time = 2.45694e-05

diagonal:  Solving for rho, Initial residual = 0, Final residual = 0, No Iterations 0
diagonal:  Solving for rhoUx, Initial residual = 0, Final residual = 0, No Iterations 0
diagonal:  Solving for rhoE, Initial residual = 0, Final residual = 0, No Iterations 0
ExecutionTime = 0.04 s  ClockTime = 0 s

deltaT = 5.54222e-06
Mean and max Courant Numbers = 0.0985567 0.173031
Time = 3.01116e-05

diagonal:  Solving for rho, Initial residual = 0, Final residual = 0, No Iterations 0
diagonal:  Solving for rhoUx, Initial residual = 0, Final residual = 0, No Iterations 0
diagonal:  Solving for rhoE, Initial residual = 0, Final residual = 0, No Iterations 0
ExecutionTime = 0.04 s  ClockTime = 0 s

deltaT = 6.17763e-06
Mean and max Courant Numbers = 0.10992 0.206787
Time = 3.62893e-05

diagonal:  Solving for rho, Initial residual = 0, Final residual = 0, No Iterations 0
diagonal:  Solving for rhoUx, Initial residual = 0, Final residual = 0, No Iterations 0
diagonal:  Solving for rhoE, Initial residual = 0, Final residual = 0, No Iterations 0
ExecutionTime = 0.04 s  ClockTime = 0 s

deltaT = 5.94883e-06
Mean and max Courant Numbers = 0.105912 0.208774
Time = 4.22381e-05

diagonal:  Solving for rho, Initial residual = 0, Final residual = 0, No Iterations 0
diagonal:  Solving for rhoUx, Initial residual = 0, Final residual = 0, No Iterations 0
diagonal:  Solving for rhoE, Initial residual = 0, Final residual = 0, No Iterations 0
ExecutionTime = 0.05 s  ClockTime = 0 s

deltaT = 5.66723e-06
Mean and max Courant Numbers = 0.100944 0.199059
Time = 4.79053e-05

diagonal:  Solving for rho, Initial residual = 0, Final residual = 0, No Iterations 0
diagonal:  Solving for rhoUx, Initial residual = 0, Final residual = 0, No Iterations 0
diagonal:  Solving for rhoE, Initial residual = 0, Final residual = 0, No Iterations 0
ExecutionTime = 0.05 s  ClockTime = 0 s

deltaT = 5.66723e-06
Mean and max Courant Numbers = 0.100989 0.195164
Time = 5.35726e-05

diagonal:  Solving for rho, Initial residual = 0, Final residual = 0, No Iterations 0
diagonal:  Solving for rhoUx, Initial residual = 0, Final residual = 0, No Iterations 0
diagonal:  Solving for rhoE, Initial residual = 0, Final residual = 0, No Iterations 0
ExecutionTime = 0.05 s  ClockTime = 0 s

deltaT = 5.8063e-06
Mean and max Courant Numbers = 0.10352 0.196517
Time = 5.93789e-05

diagonal:  Solving for rho, Initial residual = 0, Final residual = 0, No Iterations 0
diagonal:  Solving for rhoUx, Initial residual = 0, Final residual = 0, No Iterations 0
diagonal:  Solving for rhoE, Initial residual = 0, Final residual = 0, No Iterations 0
ExecutionTime = 0.05 s  ClockTime = 0 s

deltaT = 5.87888e-06
Mean and max Courant Numbers = 0.104862 0.203078
Time = 6.52578e-05

diagonal:  Solving for rho, Initial residual = 0, Final residual = 0, No Iterations 0
diagonal:  Solving for rhoUx, Initial residual = 0, Final residual = 0, No Iterations 0
diagonal:  Solving for rhoE, Initial residual = 0, Final residual = 0, No Iterations 0
ExecutionTime = 0.05 s  ClockTime = 0 s

deltaT = 5.77001e-06
Mean and max Courant Numbers = 0.102968 0.198899
Time = 7.10278e-05

diagonal:  Solving for rho, Initial residual = 0, Final residual = 0, No Iterations 0
diagonal:  Solving for rhoUx, Initial residual = 0, Final residual = 0, No Iterations 0
diagonal:  Solving for rhoE, Initial residual = 0, Final residual = 0, No Iterations 0
ExecutionTime = 0.05 s  ClockTime = 0 s

deltaT = 5.77001e-06
Mean and max Courant Numbers = 0.103022 0.197724
Time = 7.67978e-05

diagonal:  Solving for rho, Initial residual = 0, Final residual = 0, No Iterations 0
diagonal:  Solving for rhoUx, Initial residual = 0, Final residual = 0, No Iterations 0
diagonal:  Solving for rhoE, Initial residual = 0, Final residual = 0, No Iterations 0
ExecutionTime = 0.05 s  ClockTime = 0 s

deltaT = 5.8063e-06
Mean and max Courant Numbers = 0.103722 0.198665
Time = 8.26041e-05

diagonal:  Solving for rho, Initial residual = 0, Final residual = 0, No Iterations 0
diagonal:  Solving for rhoUx, Initial residual = 0, Final residual = 0, No Iterations 0
diagonal:  Solving for rhoE, Initial residual = 0, Final residual = 0, No Iterations 0
ExecutionTime = 0.05 s  ClockTime = 0 s

deltaT = 5.84329e-06
Mean and max Courant Numbers = 0.104433 0.202687
Time = 8.84474e-05

diagonal:  Solving for rho, Initial residual = 0, Final residual = 0, No Iterations 0
diagonal:  Solving for rhoUx, Initial residual = 0, Final residual = 0, No Iterations 0
diagonal:  Solving for rhoE, Initial residual = 0, Final residual = 0, No Iterations 0
ExecutionTime = 0.05 s  ClockTime = 0 s

deltaT = 5.73304e-06
Mean and max Courant Numbers = 0.102519 0.198709
Time = 9.41804e-05

diagonal:  Solving for rho, Initial residual = 0, Final residual = 0, No Iterations 0
diagonal:  Solving for rhoUx, Initial residual = 0, Final residual = 0, No Iterations 0
diagonal:  Solving for rhoE, Initial residual = 0, Final residual = 0, No Iterations 0
ExecutionTime = 0.05 s  ClockTime = 0 s

deltaT = 5.76955e-06
Mean and max Courant Numbers = 0.103226 0.198847
Time = 9.995e-05

diagonal:  Solving for rho, Initial residual = 0, Final residual = 0, No Iterations 0
diagonal:  Solving for rhoUx, Initial residual = 0, Final residual = 0, No Iterations 0
diagonal:  Solving for rhoE, Initial residual = 0, Final residual = 0, No Iterations 0
ExecutionTime = 0.05 s  ClockTime = 0 s

deltaT = 5.76955e-06
Mean and max Courant Numbers = 0.103272 0.203036
Time = 0.00010572

diagonal:  Solving for rho, Initial residual = 0, Final residual = 0, No Iterations 0
diagonal:  Solving for rhoUx, Initial residual = 0, Final residual = 0, No Iterations 0
diagonal:  Solving for rhoE, Initial residual = 0, Final residual = 0, No Iterations 0
ExecutionTime = 0.05 s  ClockTime = 0 s

deltaT = 5.66e-06
Mean and max Courant Numbers = 0.10136 0.199349
Time = 0.00011138

diagonal:  Solving for rho, Initial residual = 0, Final residual = 0, No Iterations 0
diagonal:  Solving for rhoUx, Initial residual = 0, Final residual = 0, No Iterations 0
diagonal:  Solving for rhoE, Initial residual = 0, Final residual = 0, No Iterations 0
ExecutionTime = 0.07 s  ClockTime = 0 s

deltaT = 5.66e-06
Mean and max Courant Numbers = 0.101416 0.19926
Time = 0.00011704

diagonal:  Solving for rho, Initial residual = 0, Final residual = 0, No Iterations 0
diagonal:  Solving for rhoUx, Initial residual = 0, Final residual = 0, No Iterations 0
diagonal:  Solving for rhoE, Initial residual = 0, Final residual = 0, No Iterations 0
ExecutionTime = 0.07 s  ClockTime = 0 s

deltaT = 5.66e-06
Mean and max Courant Numbers = 0.101461 0.201226
Time = 0.0001227

diagonal:  Solving for rho, Initial residual = 0, Final residual = 0, No Iterations 0
diagonal:  Solving for rhoUx, Initial residual = 0, Final residual = 0, No Iterations 0
diagonal:  Solving for rhoE, Initial residual = 0, Final residual = 0, No Iterations 0
ExecutionTime = 0.07 s  ClockTime = 0 s

deltaT = 5.62372e-06
Mean and max Courant Numbers = 0.100853 0.201575
Time = 0.000128323

diagonal:  Solving for rho, Initial residual = 0, Final residual = 0, No Iterations 0
diagonal:  Solving for rhoUx, Initial residual = 0, Final residual = 0, No Iterations 0
diagonal:  Solving for rhoE, Initial residual = 0, Final residual = 0, No Iterations 0
ExecutionTime = 0.07 s  ClockTime = 0 s

deltaT = 5.55208e-06
Mean and max Courant Numbers = 0.0996228 0.200562
Time = 0.000133875

diagonal:  Solving for rho, Initial residual = 0, Final residual = 0, No Iterations 0
diagonal:  Solving for rhoUx, Initial residual = 0, Final residual = 0, No Iterations 0
diagonal:  Solving for rhoE, Initial residual = 0, Final residual = 0, No Iterations 0
ExecutionTime = 0.07 s  ClockTime = 0 s

deltaT = 5.51672e-06
Mean and max Courant Numbers = 0.0990357 0.200716
Time = 0.000139392

diagonal:  Solving for rho, Initial residual = 0, Final residual = 0, No Iterations 0
diagonal:  Solving for rhoUx, Initial residual = 0, Final residual = 0, No Iterations 0
diagonal:  Solving for rhoE, Initial residual = 0, Final residual = 0, No Iterations 0
ExecutionTime = 0.07 s  ClockTime = 0 s

deltaT = 5.48158e-06
Mean and max Courant Numbers = 0.0984461 0.20076
Time = 0.000144874

diagonal:  Solving for rho, Initial residual = 0, Final residual = 0, No Iterations 0
diagonal:  Solving for rhoUx, Initial residual = 0, Final residual = 0, No Iterations 0
diagonal:  Solving for rhoE, Initial residual = 0, Final residual = 0, No Iterations 0
ExecutionTime = 0.07 s  ClockTime = 0 s

deltaT = 5.44666e-06
Mean and max Courant Numbers = 0.0978699 0.200712
Time = 0.00015032

diagonal:  Solving for rho, Initial residual = 0, Final residual = 0, No Iterations 0
diagonal:  Solving for rhoUx, Initial residual = 0, Final residual = 0, No Iterations 0
diagonal:  Solving for rhoE, Initial residual = 0, Final residual = 0, No Iterations 0
ExecutionTime = 0.07 s  ClockTime = 0 s

deltaT = 5.41197e-06
Mean and max Courant Numbers = 0.0972952 0.200579
Time = 0.000155732

diagonal:  Solving for rho, Initial residual = 0, Final residual = 0, No Iterations 0
diagonal:  Solving for rhoUx, Initial residual = 0, Final residual = 0, No Iterations 0
diagonal:  Solving for rhoE, Initial residual = 0, Final residual = 0, No Iterations 0
ExecutionTime = 0.07 s  ClockTime = 0 s

deltaT = 5.3775e-06
Mean and max Courant Numbers = 0.0967146 0.200367
Time = 0.00016111

diagonal:  Solving for rho, Initial residual = 0, Final residual = 0, No Iterations 0
diagonal:  Solving for rhoUx, Initial residual = 0, Final residual = 0, No Iterations 0
diagonal:  Solving for rhoE, Initial residual = 0, Final residual = 0, No Iterations 0
ExecutionTime = 0.07 s  ClockTime = 0 s

deltaT = 5.34325e-06
Mean and max Courant Numbers = 0.0961454 0.20008
Time = 0.000166453

diagonal:  Solving for rho, Initial residual = 0, Final residual = 0, No Iterations 0
diagonal:  Solving for rhoUx, Initial residual = 0, Final residual = 0, No Iterations 0
diagonal:  Solving for rhoE, Initial residual = 0, Final residual = 0, No Iterations 0
ExecutionTime = 0.07 s  ClockTime = 0 s

deltaT = 5.30922e-06
Mean and max Courant Numbers = 0.0955823 0.199722
Time = 0.000171762

diagonal:  Solving for rho, Initial residual = 0, Final residual = 0, No Iterations 0
diagonal:  Solving for rhoUx, Initial residual = 0, Final residual = 0, No Iterations 0
diagonal:  Solving for rhoE, Initial residual = 0, Final residual = 0, No Iterations 0
ExecutionTime = 0.07 s  ClockTime = 0 s

deltaT = 5.30922e-06
Mean and max Courant Numbers = 0.0956215 0.200575
Time = 0.000177071

diagonal:  Solving for rho, Initial residual = 0, Final residual = 0, No Iterations 0
diagonal:  Solving for rhoUx, Initial residual = 0, Final residual = 0, No Iterations 0
diagonal:  Solving for rhoE, Initial residual = 0, Final residual = 0, No Iterations 0
ExecutionTime = 0.09 s  ClockTime = 0 s

deltaT = 5.27518e-06
Mean and max Courant Numbers = 0.0950511 0.200077
Time = 0.000182347

diagonal:  Solving for rho, Initial residual = 0, Final residual = 0, No Iterations 0
diagonal:  Solving for rhoUx, Initial residual = 0, Final residual = 0, No Iterations 0
diagonal:  Solving for rhoE, Initial residual = 0, Final residual = 0, No Iterations 0
ExecutionTime = 0.09 s  ClockTime = 0 s

deltaT = 5.24137e-06
Mean and max Courant Numbers = 0.0944908 0.199527
Time = 0.000187588

diagonal:  Solving for rho, Initial residual = 0, Final residual = 0, No Iterations 0
diagonal:  Solving for rhoUx, Initial residual = 0, Final residual = 0, No Iterations 0
diagonal:  Solving for rhoE, Initial residual = 0, Final residual = 0, No Iterations 0
ExecutionTime = 0.09 s  ClockTime = 0 s

deltaT = 5.24137e-06
Mean and max Courant Numbers = 0.0945298 0.200209
Time = 0.000192829

diagonal:  Solving for rho, Initial residual = 0, Final residual = 0, No Iterations 0
diagonal:  Solving for rhoUx, Initial residual = 0, Final residual = 0, No Iterations 0
diagonal:  Solving for rhoE, Initial residual = 0, Final residual = 0, No Iterations 0
ExecutionTime = 0.09 s  ClockTime = 0 s

deltaT = 5.20755e-06
Mean and max Courant Numbers = 0.0939572 0.199549
Time = 0.000198037

diagonal:  Solving for rho, Initial residual = 0, Final residual = 0, No Iterations 0
diagonal:  Solving for rhoUx, Initial residual = 0, Final residual = 0, No Iterations 0
diagonal:  Solving for rhoE, Initial residual = 0, Final residual = 0, No Iterations 0
ExecutionTime = 0.09 s  ClockTime = 0 s

deltaT = 5.20755e-06
Mean and max Courant Numbers = 0.0940052 0.200144
Time = 0.000203244

diagonal:  Solving for rho, Initial residual = 0, Final residual = 0, No Iterations 0
diagonal:  Solving for rhoUx, Initial residual = 0, Final residual = 0, No Iterations 0
diagonal:  Solving for rhoE, Initial residual = 0, Final residual = 0, No Iterations 0
ExecutionTime = 0.09 s  ClockTime = 0 s

deltaT = 5.17374e-06
Mean and max Courant Numbers = 0.0934372 0.199372
Time = 0.000208418

diagonal:  Solving for rho, Initial residual = 0, Final residual = 0, No Iterations 0
diagonal:  Solving for rhoUx, Initial residual = 0, Final residual = 0, No Iterations 0
diagonal:  Solving for rhoE, Initial residual = 0, Final residual = 0, No Iterations 0
ExecutionTime = 0.09 s  ClockTime = 0 s

deltaT = 5.17374e-06
Mean and max Courant Numbers = 0.0934705 0.199871
Time = 0.000213592

diagonal:  Solving for rho, Initial residual = 0, Final residual = 0, No Iterations 0
diagonal:  Solving for rhoUx, Initial residual = 0, Final residual = 0, No Iterations 0
diagonal:  Solving for rhoE, Initial residual = 0, Final residual = 0, No Iterations 0
ExecutionTime = 0.09 s  ClockTime = 0 s

deltaT = 5.17374e-06
Mean and max Courant Numbers = 0.0935132 0.200344
Time = 0.000218766

diagonal:  Solving for rho, Initial residual = 0, Final residual = 0, No Iterations 0
diagonal:  Solving for rhoUx, Initial residual = 0, Final residual = 0, No Iterations 0
diagonal:  Solving for rhoE, Initial residual = 0, Final residual = 0, No Iterations 0
ExecutionTime = 0.09 s  ClockTime = 0 s

deltaT = 5.1397e-06
Mean and max Courant Numbers = 0.0929442 0.199475
Time = 0.000223905

diagonal:  Solving for rho, Initial residual = 0, Final residual = 0, No Iterations 0
diagonal:  Solving for rhoUx, Initial residual = 0, Final residual = 0, No Iterations 0
diagonal:  Solving for rhoE, Initial residual = 0, Final residual = 0, No Iterations 0
ExecutionTime = 0.09 s  ClockTime = 0 s

deltaT = 5.1397e-06
Mean and max Courant Numbers = 0.0929799 0.199908
Time = 0.000229045

diagonal:  Solving for rho, Initial residual = 0, Final residual = 0, No Iterations 0
diagonal:  Solving for rhoUx, Initial residual = 0, Final residual = 0, No Iterations 0
diagonal:  Solving for rhoE, Initial residual = 0, Final residual = 0, No Iterations 0
ExecutionTime = 0.09 s  ClockTime = 0 s

deltaT = 5.1397e-06
Mean and max Courant Numbers = 0.0930187 0.20032
Time = 0.000234185

diagonal:  Solving for rho, Initial residual = 0, Final residual = 0, No Iterations 0
diagonal:  Solving for rhoUx, Initial residual = 0, Final residual = 0, No Iterations 0
diagonal:  Solving for rhoE, Initial residual = 0, Final residual = 0, No Iterations 0
ExecutionTime = 0.09 s  ClockTime = 0 s

deltaT = 5.10543e-06
Mean and max Courant Numbers = 0.0924453 0.199379
Time = 0.00023929

diagonal:  Solving for rho, Initial residual = 0, Final residual = 0, No Iterations 0
diagonal:  Solving for rhoUx, Initial residual = 0, Final residual = 0, No Iterations 0
diagonal:  Solving for rhoE, Initial residual = 0, Final residual = 0, No Iterations 0
ExecutionTime = 0.1 s  ClockTime = 0 s

deltaT = 5.10543e-06
Mean and max Courant Numbers = 0.0924826 0.19976
Time = 0.000244396

diagonal:  Solving for rho, Initial residual = 0, Final residual = 0, No Iterations 0
diagonal:  Solving for rhoUx, Initial residual = 0, Final residual = 0, No Iterations 0
diagonal:  Solving for rhoE, Initial residual = 0, Final residual = 0, No Iterations 0
ExecutionTime = 0.1 s  ClockTime = 0 s

deltaT = 5.10543e-06
Mean and max Courant Numbers = 0.0925166 0.200124
Time = 0.000249501

diagonal:  Solving for rho, Initial residual = 0, Final residual = 0, No Iterations 0
diagonal:  Solving for rhoUx, Initial residual = 0, Final residual = 0, No Iterations 0
diagonal:  Solving for rhoE, Initial residual = 0, Final residual = 0, No Iterations 0
ExecutionTime = 0.1 s  ClockTime = 0 s

deltaT = 5.07094e-06
Mean and max Courant Numbers = 0.0919365 0.199121
Time = 0.000254572

diagonal:  Solving for rho, Initial residual = 0, Final residual = 0, No Iterations 0
diagonal:  Solving for rhoUx, Initial residual = 0, Final residual = 0, No Iterations 0
diagonal:  Solving for rhoE, Initial residual = 0, Final residual = 0, No Iterations 0
ExecutionTime = 0.1 s  ClockTime = 0 s

deltaT = 5.07094e-06
Mean and max Courant Numbers = 0.091979 0.199459
Time = 0.000259643

diagonal:  Solving for rho, Initial residual = 0, Final residual = 0, No Iterations 0
diagonal:  Solving for rhoUx, Initial residual = 0, Final residual = 0, No Iterations 0
diagonal:  Solving for rhoE, Initial residual = 0, Final residual = 0, No Iterations 0
ExecutionTime = 0.1 s  ClockTime = 0 s

deltaT = 5.07094e-06
Mean and max Courant Numbers = 0.0920122 0.199782
Time = 0.000264714

diagonal:  Solving for rho, Initial residual = 0, Final residual = 0, No Iterations 0
diagonal:  Solving for rhoUx, Initial residual = 0, Final residual = 0, No Iterations 0
diagonal:  Solving for rhoE, Initial residual = 0, Final residual = 0, No Iterations 0
ExecutionTime = 0.1 s  ClockTime = 0 s

deltaT = 5.07094e-06
Mean and max Courant Numbers = 0.0920518 0.200095
Time = 0.000269785

diagonal:  Solving for rho, Initial residual = 0, Final residual = 0, No Iterations 0
diagonal:  Solving for rhoUx, Initial residual = 0, Final residual = 0, No Iterations 0
diagonal:  Solving for rhoE, Initial residual = 0, Final residual = 0, No Iterations 0
ExecutionTime = 0.1 s  ClockTime = 0 s

deltaT = 5.03597e-06
Mean and max Courant Numbers = 0.0914614 0.199016
Time = 0.000274821

diagonal:  Solving for rho, Initial residual = 0, Final residual = 0, No Iterations 0
diagonal:  Solving for rhoUx, Initial residual = 0, Final residual = 0, No Iterations 0
diagonal:  Solving for rhoE, Initial residual = 0, Final residual = 0, No Iterations 0
ExecutionTime = 0.1 s  ClockTime = 0 s

deltaT = 5.03597e-06
Mean and max Courant Numbers = 0.0914961 0.199308
Time = 0.000279857

diagonal:  Solving for rho, Initial residual = 0, Final residual = 0, No Iterations 0
diagonal:  Solving for rhoUx, Initial residual = 0, Final residual = 0, No Iterations 0
diagonal:  Solving for rhoE, Initial residual = 0, Final residual = 0, No Iterations 0
ExecutionTime = 0.1 s  ClockTime = 0 s

deltaT = 5.03597e-06
Mean and max Courant Numbers = 0.0915308 0.199589
Time = 0.000284893

diagonal:  Solving for rho, Initial residual = 0, Final residual = 0, No Iterations 0
diagonal:  Solving for rhoUx, Initial residual = 0, Final residual = 0, No Iterations 0
diagonal:  Solving for rhoE, Initial residual = 0, Final residual = 0, No Iterations 0
ExecutionTime = 0.1 s  ClockTime = 0 s

deltaT = 5.03597e-06
Mean and max Courant Numbers = 0.0915755 0.199861
Time = 0.000289929

diagonal:  Solving for rho, Initial residual = 0, Final residual = 0, No Iterations 0
diagonal:  Solving for rhoUx, Initial residual = 0, Final residual = 0, No Iterations 0
diagonal:  Solving for rhoE, Initial residual = 0, Final residual = 0, No Iterations 0
ExecutionTime = 0.1 s  ClockTime = 0 s

deltaT = 5.03597e-06
Mean and max Courant Numbers = 0.0916152 0.200127
Time = 0.000294965

diagonal:  Solving for rho, Initial residual = 0, Final residual = 0, No Iterations 0
diagonal:  Solving for rhoUx, Initial residual = 0, Final residual = 0, No Iterations 0
diagonal:  Solving for rhoE, Initial residual = 0, Final residual = 0, No Iterations 0
ExecutionTime = 0.12 s  ClockTime = 0 s

deltaT = 5.00025e-06
Mean and max Courant Numbers = 0.090997 0.198964
Time = 0.000299965

diagonal:  Solving for rho, Initial residual = 0, Final residual = 0, No Iterations 0
diagonal:  Solving for rhoUx, Initial residual = 0, Final residual = 0, No Iterations 0
diagonal:  Solving for rhoE, Initial residual = 0, Final residual = 0, No Iterations 0
ExecutionTime = 0.12 s  ClockTime = 0 s

deltaT = 5.00025e-06
Mean and max Courant Numbers = 0.091036 0.199216
Time = 0.000304965

diagonal:  Solving for rho, Initial residual = 0, Final residual = 0, No Iterations 0
diagonal:  Solving for rhoUx, Initial residual = 0, Final residual = 0, No Iterations 0
diagonal:  Solving for rhoE, Initial residual = 0, Final residual = 0, No Iterations 0
ExecutionTime = 0.12 s  ClockTime = 0 s

deltaT = 5.00025e-06
Mean and max Courant Numbers = 0.0910793 0.199459
Time = 0.000309965

diagonal:  Solving for rho, Initial residual = 0, Final residual = 0, No Iterations 0
diagonal:  Solving for rhoUx, Initial residual = 0, Final residual = 0, No Iterations 0
diagonal:  Solving for rhoE, Initial residual = 0, Final residual = 0, No Iterations 0
ExecutionTime = 0.12 s  ClockTime = 0 s

deltaT = 5.00025e-06
Mean and max Courant Numbers = 0.0911137 0.199697
Time = 0.000314966

diagonal:  Solving for rho, Initial residual = 0, Final residual = 0, No Iterations 0
diagonal:  Solving for rhoUx, Initial residual = 0, Final residual = 0, No Iterations 0
diagonal:  Solving for rhoE, Initial residual = 0, Final residual = 0, No Iterations 0
ExecutionTime = 0.12 s  ClockTime = 0 s

deltaT = 5.00025e-06
Mean and max Courant Numbers = 0.0911477 0.19993
Time = 0.000319966

diagonal:  Solving for rho, Initial residual = 0, Final residual = 0, No Iterations 0
diagonal:  Solving for rhoUx, Initial residual = 0, Final residual = 0, No Iterations 0
diagonal:  Solving for rhoE, Initial residual = 0, Final residual = 0, No Iterations 0
ExecutionTime = 0.12 s  ClockTime = 0 s

deltaT = 5.00025e-06
Mean and max Courant Numbers = 0.0911905 0.200159
Time = 0.000324966

diagonal:  Solving for rho, Initial residual = 0, Final residual = 0, No Iterations 0
diagonal:  Solving for rhoUx, Initial residual = 0, Final residual = 0, No Iterations 0
diagonal:  Solving for rhoE, Initial residual = 0, Final residual = 0, No Iterations 0
ExecutionTime = 0.12 s  ClockTime = 0 s

deltaT = 4.96348e-06
Mean and max Courant Numbers = 0.0905584 0.198909
Time = 0.00032993

diagonal:  Solving for rho, Initial residual = 0, Final residual = 0, No Iterations 0
diagonal:  Solving for rhoUx, Initial residual = 0, Final residual = 0, No Iterations 0
diagonal:  Solving for rhoE, Initial residual = 0, Final residual = 0, No Iterations 0
ExecutionTime = 0.12 s  ClockTime = 0 s

deltaT = 4.96348e-06
Mean and max Courant Numbers = 0.0905899 0.199127
Time = 0.000334893

diagonal:  Solving for rho, Initial residual = 0, Final residual = 0, No Iterations 0
diagonal:  Solving for rhoUx, Initial residual = 0, Final residual = 0, No Iterations 0
diagonal:  Solving for rhoE, Initial residual = 0, Final residual = 0, No Iterations 0
ExecutionTime = 0.12 s  ClockTime = 0 s

deltaT = 4.96348e-06
Mean and max Courant Numbers = 0.0906283 0.199339
Time = 0.000339857

diagonal:  Solving for rho, Initial residual = 0, Final residual = 0, No Iterations 0
diagonal:  Solving for rhoUx, Initial residual = 0, Final residual = 0, No Iterations 0
diagonal:  Solving for rhoE, Initial residual = 0, Final residual = 0, No Iterations 0
ExecutionTime = 0.12 s  ClockTime = 0 s

deltaT = 4.96348e-06
Mean and max Courant Numbers = 0.0906704 0.199546
Time = 0.00034482

diagonal:  Solving for rho, Initial residual = 0, Final residual = 0, No Iterations 0
diagonal:  Solving for rhoUx, Initial residual = 0, Final residual = 0, No Iterations 0
diagonal:  Solving for rhoE, Initial residual = 0, Final residual = 0, No Iterations 0
ExecutionTime = 0.12 s  ClockTime = 0 s

deltaT = 4.96348e-06
Mean and max Courant Numbers = 0.0907041 0.199749
Time = 0.000349784

diagonal:  Solving for rho, Initial residual = 0, Final residual = 0, No Iterations 0
diagonal:  Solving for rhoUx, Initial residual = 0, Final residual = 0, No Iterations 0
diagonal:  Solving for rhoE, Initial residual = 0, Final residual = 0, No Iterations 0
ExecutionTime = 0.13 s  ClockTime = 0 s

deltaT = 4.96348e-06
Mean and max Courant Numbers = 0.0907371 0.199947
Time = 0.000354747

diagonal:  Solving for rho, Initial residual = 0, Final residual = 0, No Iterations 0
diagonal:  Solving for rhoUx, Initial residual = 0, Final residual = 0, No Iterations 0
diagonal:  Solving for rhoE, Initial residual = 0, Final residual = 0, No Iterations 0
ExecutionTime = 0.13 s  ClockTime = 0 s

deltaT = 4.96348e-06
Mean and max Courant Numbers = 0.0907792 0.200141
Time = 0.000359711

diagonal:  Solving for rho, Initial residual = 0, Final residual = 0, No Iterations 0
diagonal:  Solving for rhoUx, Initial residual = 0, Final residual = 0, No Iterations 0
diagonal:  Solving for rhoE, Initial residual = 0, Final residual = 0, No Iterations 0
ExecutionTime = 0.13 s  ClockTime = 0 s

deltaT = 4.9253e-06
Mean and max Courant Numbers = 0.0901196 0.198789
Time = 0.000364636

diagonal:  Solving for rho, Initial residual = 0, Final residual = 0, No Iterations 0
diagonal:  Solving for rhoUx, Initial residual = 0, Final residual = 0, No Iterations 0
diagonal:  Solving for rhoE, Initial residual = 0, Final residual = 0, No Iterations 0
ExecutionTime = 0.13 s  ClockTime = 0 s

deltaT = 4.9253e-06
Mean and max Courant Numbers = 0.0901505 0.198972
Time = 0.000369561

diagonal:  Solving for rho, Initial residual = 0, Final residual = 0, No Iterations 0
diagonal:  Solving for rhoUx, Initial residual = 0, Final residual = 0, No Iterations 0
diagonal:  Solving for rhoE, Initial residual = 0, Final residual = 0, No Iterations 0
ExecutionTime = 0.13 s  ClockTime = 0 s

deltaT = 4.9253e-06
Mean and max Courant Numbers = 0.0901869 0.199149
Time = 0.000374486

diagonal:  Solving for rho, Initial residual = 0, Final residual = 0, No Iterations 0
diagonal:  Solving for rhoUx, Initial residual = 0, Final residual = 0, No Iterations 0
diagonal:  Solving for rhoE, Initial residual = 0, Final residual = 0, No Iterations 0
ExecutionTime = 0.13 s  ClockTime = 0 s

deltaT = 4.9253e-06
Mean and max Courant Numbers = 0.0902288 0.199322
Time = 0.000379412

diagonal:  Solving for rho, Initial residual = 0, Final residual = 0, No Iterations 0
diagonal:  Solving for rhoUx, Initial residual = 0, Final residual = 0, No Iterations 0
diagonal:  Solving for rhoE, Initial residual = 0, Final residual = 0, No Iterations 0
ExecutionTime = 0.13 s  ClockTime = 0 s

deltaT = 4.9253e-06
Mean and max Courant Numbers = 0.0902634 0.19949
Time = 0.000384337

diagonal:  Solving for rho, Initial residual = 0, Final residual = 0, No Iterations 0
diagonal:  Solving for rhoUx, Initial residual = 0, Final residual = 0, No Iterations 0
diagonal:  Solving for rhoE, Initial residual = 0, Final residual = 0, No Iterations 0
ExecutionTime = 0.13 s  ClockTime = 0 s

deltaT = 4.9253e-06
Mean and max Courant Numbers = 0.090295 0.199653
Time = 0.000389262

diagonal:  Solving for rho, Initial residual = 0, Final residual = 0, No Iterations 0
diagonal:  Solving for rhoUx, Initial residual = 0, Final residual = 0, No Iterations 0
diagonal:  Solving for rhoE, Initial residual = 0, Final residual = 0, No Iterations 0
ExecutionTime = 0.13 s  ClockTime = 0 s

deltaT = 4.9253e-06
Mean and max Courant Numbers = 0.090335 0.199812
Time = 0.000394188

diagonal:  Solving for rho, Initial residual = 0, Final residual = 0, No Iterations 0
diagonal:  Solving for rhoUx, Initial residual = 0, Final residual = 0, No Iterations 0
diagonal:  Solving for rhoE, Initial residual = 0, Final residual = 0, No Iterations 0
ExecutionTime = 0.13 s  ClockTime = 0 s

deltaT = 4.9253e-06
Mean and max Courant Numbers = 0.0903746 0.199967
Time = 0.000399113

diagonal:  Solving for rho, Initial residual = 0, Final residual = 0, No Iterations 0
diagonal:  Solving for rhoUx, Initial residual = 0, Final residual = 0, No Iterations 0
diagonal:  Solving for rhoE, Initial residual = 0, Final residual = 0, No Iterations 0
ExecutionTime = 0.13 s  ClockTime = 0 s

deltaT = 4.9253e-06
Mean and max Courant Numbers = 0.0904065 0.200118
Time = 0.000404038

diagonal:  Solving for rho, Initial residual = 0, Final residual = 0, No Iterations 0
diagonal:  Solving for rhoUx, Initial residual = 0, Final residual = 0, No Iterations 0
diagonal:  Solving for rhoE, Initial residual = 0, Final residual = 0, No Iterations 0
ExecutionTime = 0.15 s  ClockTime = 0 s

deltaT = 4.88493e-06
Mean and max Courant Numbers = 0.0896999 0.198623
Time = 0.000408923

diagonal:  Solving for rho, Initial residual = 0, Final residual = 0, No Iterations 0
diagonal:  Solving for rhoUx, Initial residual = 0, Final residual = 0, No Iterations 0
diagonal:  Solving for rhoE, Initial residual = 0, Final residual = 0, No Iterations 0
ExecutionTime = 0.15 s  ClockTime = 0 s

deltaT = 4.88493e-06
Mean and max Courant Numbers = 0.0897411 0.198765
Time = 0.000413808

diagonal:  Solving for rho, Initial residual = 0, Final residual = 0, No Iterations 0
diagonal:  Solving for rhoUx, Initial residual = 0, Final residual = 0, No Iterations 0
diagonal:  Solving for rhoE, Initial residual = 0, Final residual = 0, No Iterations 0
ExecutionTime = 0.15 s  ClockTime = 0 s

deltaT = 4.88493e-06
Mean and max Courant Numbers = 0.089777 0.198902
Time = 0.000418693

diagonal:  Solving for rho, Initial residual = 0, Final residual = 0, No Iterations 0
diagonal:  Solving for rhoUx, Initial residual = 0, Final residual = 0, No Iterations 0
diagonal:  Solving for rhoE, Initial residual = 0, Final residual = 0, No Iterations 0
ExecutionTime = 0.15 s  ClockTime = 0 s

deltaT = 4.88493e-06
Mean and max Courant Numbers = 0.0898078 0.199036
Time = 0.000423578

diagonal:  Solving for rho, Initial residual = 0, Final residual = 0, No Iterations 0
diagonal:  Solving for rhoUx, Initial residual = 0, Final residual = 0, No Iterations 0
diagonal:  Solving for rhoE, Initial residual = 0, Final residual = 0, No Iterations 0
ExecutionTime = 0.15 s  ClockTime = 0 s

deltaT = 4.88493e-06
Mean and max Courant Numbers = 0.0898455 0.199166
Time = 0.000428463

diagonal:  Solving for rho, Initial residual = 0, Final residual = 0, No Iterations 0
diagonal:  Solving for rhoUx, Initial residual = 0, Final residual = 0, No Iterations 0
diagonal:  Solving for rhoE, Initial residual = 0, Final residual = 0, No Iterations 0
ExecutionTime = 0.15 s  ClockTime = 0 s

deltaT = 4.88493e-06
Mean and max Courant Numbers = 0.0898861 0.199292
Time = 0.000433348

diagonal:  Solving for rho, Initial residual = 0, Final residual = 0, No Iterations 0
diagonal:  Solving for rhoUx, Initial residual = 0, Final residual = 0, No Iterations 0
diagonal:  Solving for rhoE, Initial residual = 0, Final residual = 0, No Iterations 0
ExecutionTime = 0.15 s  ClockTime = 0 s

deltaT = 4.88493e-06
Mean and max Courant Numbers = 0.0899193 0.199416
Time = 0.000438233

diagonal:  Solving for rho, Initial residual = 0, Final residual = 0, No Iterations 0
diagonal:  Solving for rhoUx, Initial residual = 0, Final residual = 0, No Iterations 0
diagonal:  Solving for rhoE, Initial residual = 0, Final residual = 0, No Iterations 0
ExecutionTime = 0.15 s  ClockTime = 0 s

deltaT = 4.88493e-06
Mean and max Courant Numbers = 0.0899518 0.199536
Time = 0.000443118

diagonal:  Solving for rho, Initial residual = 0, Final residual = 0, No Iterations 0
diagonal:  Solving for rhoUx, Initial residual = 0, Final residual = 0, No Iterations 0
diagonal:  Solving for rhoE, Initial residual = 0, Final residual = 0, No Iterations 0
ExecutionTime = 0.15 s  ClockTime = 0 s

deltaT = 4.88493e-06
Mean and max Courant Numbers = 0.0899922 0.199654
Time = 0.000448003

diagonal:  Solving for rho, Initial residual = 0, Final residual = 0, No Iterations 0
diagonal:  Solving for rhoUx, Initial residual = 0, Final residual = 0, No Iterations 0
diagonal:  Solving for rhoE, Initial residual = 0, Final residual = 0, No Iterations 0
ExecutionTime = 0.15 s  ClockTime = 0 s

deltaT = 4.88493e-06
Mean and max Courant Numbers = 0.0900305 0.199769
Time = 0.000452888

diagonal:  Solving for rho, Initial residual = 0, Final residual = 0, No Iterations 0
diagonal:  Solving for rhoUx, Initial residual = 0, Final residual = 0, No Iterations 0
diagonal:  Solving for rhoE, Initial residual = 0, Final residual = 0, No Iterations 0
ExecutionTime = 0.15 s  ClockTime = 0 s

deltaT = 4.88493e-06
Mean and max Courant Numbers = 0.0900616 0.199881
Time = 0.000457773

diagonal:  Solving for rho, Initial residual = 0, Final residual = 0, No Iterations 0
diagonal:  Solving for rhoUx, Initial residual = 0, Final residual = 0, No Iterations 0
diagonal:  Solving for rhoE, Initial residual = 0, Final residual = 0, No Iterations 0
ExecutionTime = 0.17 s  ClockTime = 0 s

deltaT = 4.88493e-06
Mean and max Courant Numbers = 0.0900964 0.19999
Time = 0.000462657

diagonal:  Solving for rho, Initial residual = 0, Final residual = 0, No Iterations 0
diagonal:  Solving for rhoUx, Initial residual = 0, Final residual = 0, No Iterations 0
diagonal:  Solving for rhoE, Initial residual = 0, Final residual = 0, No Iterations 0
ExecutionTime = 0.17 s  ClockTime = 0 s

deltaT = 4.88493e-06
Mean and max Courant Numbers = 0.090138 0.200097
Time = 0.000467542

diagonal:  Solving for rho, Initial residual = 0, Final residual = 0, No Iterations 0
diagonal:  Solving for rhoUx, Initial residual = 0, Final residual = 0, No Iterations 0
diagonal:  Solving for rhoE, Initial residual = 0, Final residual = 0, No Iterations 0
ExecutionTime = 0.17 s  ClockTime = 0 s

deltaT = 4.84052e-06
Mean and max Courant Numbers = 0.0893541 0.198381
Time = 0.000472383

diagonal:  Solving for rho, Initial residual = 0, Final residual = 0, No Iterations 0
diagonal:  Solving for rhoUx, Initial residual = 0, Final residual = 0, No Iterations 0
diagonal:  Solving for rhoE, Initial residual = 0, Final residual = 0, No Iterations 0
ExecutionTime = 0.17 s  ClockTime = 0 s

deltaT = 4.84052e-06
Mean and max Courant Numbers = 0.0893841 0.198482
Time = 0.000477223

diagonal:  Solving for rho, Initial residual = 0, Final residual = 0, No Iterations 0
diagonal:  Solving for rhoUx, Initial residual = 0, Final residual = 0, No Iterations 0
diagonal:  Solving for rhoE, Initial residual = 0, Final residual = 0, No Iterations 0
ExecutionTime = 0.17 s  ClockTime = 0 s

deltaT = 4.84052e-06
Mean and max Courant Numbers = 0.0894207 0.19858
Time = 0.000482064

diagonal:  Solving for rho, Initial residual = 0, Final residual = 0, No Iterations 0
diagonal:  Solving for rhoUx, Initial residual = 0, Final residual = 0, No Iterations 0
diagonal:  Solving for rhoE, Initial residual = 0, Final residual = 0, No Iterations 0
ExecutionTime = 0.17 s  ClockTime = 0 s

deltaT = 4.84052e-06
Mean and max Courant Numbers = 0.08946 0.198675
Time = 0.000486905

diagonal:  Solving for rho, Initial residual = 0, Final residual = 0, No Iterations 0
diagonal:  Solving for rhoUx, Initial residual = 0, Final residual = 0, No Iterations 0
diagonal:  Solving for rhoE, Initial residual = 0, Final residual = 0, No Iterations 0
ExecutionTime = 0.17 s  ClockTime = 0 s

deltaT = 4.84052e-06
Mean and max Courant Numbers = 0.0894915 0.198768
Time = 0.000491745

diagonal:  Solving for rho, Initial residual = 0, Final residual = 0, No Iterations 0
diagonal:  Solving for rhoUx, Initial residual = 0, Final residual = 0, No Iterations 0
diagonal:  Solving for rhoE, Initial residual = 0, Final residual = 0, No Iterations 0
ExecutionTime = 0.17 s  ClockTime = 0 s

deltaT = 4.84052e-06
Mean and max Courant Numbers = 0.0895233 0.198859
Time = 0.000496586

diagonal:  Solving for rho, Initial residual = 0, Final residual = 0, No Iterations 0
diagonal:  Solving for rhoUx, Initial residual = 0, Final residual = 0, No Iterations 0
diagonal:  Solving for rhoE, Initial residual = 0, Final residual = 0, No Iterations 0
ExecutionTime = 0.17 s  ClockTime = 0 s

deltaT = 4.84052e-06
Mean and max Courant Numbers = 0.0895622 0.198948
Time = 0.000501426

diagonal:  Solving for rho, Initial residual = 0, Final residual = 0, No Iterations 0
diagonal:  Solving for rhoUx, Initial residual = 0, Final residual = 0, No Iterations 0
diagonal:  Solving for rhoE, Initial residual = 0, Final residual = 0, No Iterations 0
ExecutionTime = 0.17 s  ClockTime = 0 s

deltaT = 4.84052e-06
Mean and max Courant Numbers = 0.0895985 0.199035
Time = 0.000506267

diagonal:  Solving for rho, Initial residual = 0, Final residual = 0, No Iterations 0
diagonal:  Solving for rhoUx, Initial residual = 0, Final residual = 0, No Iterations 0
diagonal:  Solving for rhoE, Initial residual = 0, Final residual = 0, No Iterations 0
ExecutionTime = 0.17 s  ClockTime = 0 s

deltaT = 4.84052e-06
Mean and max Courant Numbers = 0.0896287 0.19912
Time = 0.000511107

diagonal:  Solving for rho, Initial residual = 0, Final residual = 0, No Iterations 0
diagonal:  Solving for rhoUx, Initial residual = 0, Final residual = 0, No Iterations 0
diagonal:  Solving for rhoE, Initial residual = 0, Final residual = 0, No Iterations 0
ExecutionTime = 0.17 s  ClockTime = 0 s

deltaT = 4.84052e-06
Mean and max Courant Numbers = 0.0896619 0.199203
Time = 0.000515948

diagonal:  Solving for rho, Initial residual = 0, Final residual = 0, No Iterations 0
diagonal:  Solving for rhoUx, Initial residual = 0, Final residual = 0, No Iterations 0
diagonal:  Solving for rhoE, Initial residual = 0, Final residual = 0, No Iterations 0
ExecutionTime = 0.18 s  ClockTime = 0 s

deltaT = 4.84052e-06
Mean and max Courant Numbers = 0.0897018 0.199285
Time = 0.000520788

diagonal:  Solving for rho, Initial residual = 0, Final residual = 0, No Iterations 0
diagonal:  Solving for rhoUx, Initial residual = 0, Final residual = 0, No Iterations 0
diagonal:  Solving for rhoE, Initial residual = 0, Final residual = 0, No Iterations 0
ExecutionTime = 0.18 s  ClockTime = 0 s

deltaT = 4.84052e-06
Mean and max Courant Numbers = 0.0897372 0.199364
Time = 0.000525629

diagonal:  Solving for rho, Initial residual = 0, Final residual = 0, No Iterations 0
diagonal:  Solving for rhoUx, Initial residual = 0, Final residual = 0, No Iterations 0
diagonal:  Solving for rhoE, Initial residual = 0, Final residual = 0, No Iterations 0
ExecutionTime = 0.18 s  ClockTime = 0 s

deltaT = 4.84052e-06
Mean and max Courant Numbers = 0.0897669 0.199442
Time = 0.000530469

diagonal:  Solving for rho, Initial residual = 0, Final residual = 0, No Iterations 0
diagonal:  Solving for rhoUx, Initial residual = 0, Final residual = 0, No Iterations 0
diagonal:  Solving for rhoE, Initial residual = 0, Final residual = 0, No Iterations 0
ExecutionTime = 0.18 s  ClockTime = 0 s

deltaT = 4.84052e-06
Mean and max Courant Numbers = 0.0898023 0.199519
Time = 0.00053531

diagonal:  Solving for rho, Initial residual = 0, Final residual = 0, No Iterations 0
diagonal:  Solving for rhoUx, Initial residual = 0, Final residual = 0, No Iterations 0
diagonal:  Solving for rhoE, Initial residual = 0, Final residual = 0, No Iterations 0
ExecutionTime = 0.18 s  ClockTime = 0 s

deltaT = 4.84052e-06
Mean and max Courant Numbers = 0.0898416 0.199594
Time = 0.00054015

diagonal:  Solving for rho, Initial residual = 0, Final residual = 0, No Iterations 0
diagonal:  Solving for rhoUx, Initial residual = 0, Final residual = 0, No Iterations 0
diagonal:  Solving for rhoE, Initial residual = 0, Final residual = 0, No Iterations 0
ExecutionTime = 0.18 s  ClockTime = 0 s

deltaT = 4.84052e-06
Mean and max Courant Numbers = 0.0898743 0.199667
Time = 0.000544991

diagonal:  Solving for rho, Initial residual = 0, Final residual = 0, No Iterations 0
diagonal:  Solving for rhoUx, Initial residual = 0, Final residual = 0, No Iterations 0
diagonal:  Solving for rhoE, Initial residual = 0, Final residual = 0, No Iterations 0
ExecutionTime = 0.18 s  ClockTime = 0 s

deltaT = 4.84052e-06
Mean and max Courant Numbers = 0.0899053 0.199739
Time = 0.000549831

diagonal:  Solving for rho, Initial residual = 0, Final residual = 0, No Iterations 0
diagonal:  Solving for rhoUx, Initial residual = 0, Final residual = 0, No Iterations 0
diagonal:  Solving for rhoE, Initial residual = 0, Final residual = 0, No Iterations 0
ExecutionTime = 0.18 s  ClockTime = 0 s

deltaT = 4.84052e-06
Mean and max Courant Numbers = 0.0899434 0.19981
Time = 0.000554672

diagonal:  Solving for rho, Initial residual = 0, Final residual = 0, No Iterations 0
diagonal:  Solving for rhoUx, Initial residual = 0, Final residual = 0, No Iterations 0
diagonal:  Solving for rhoE, Initial residual = 0, Final residual = 0, No Iterations 0
ExecutionTime = 0.18 s  ClockTime = 0 s

deltaT = 4.84052e-06
Mean and max Courant Numbers = 0.0899807 0.199879
Time = 0.000559512

diagonal:  Solving for rho, Initial residual = 0, Final residual = 0, No Iterations 0
diagonal:  Solving for rhoUx, Initial residual = 0, Final residual = 0, No Iterations 0
diagonal:  Solving for rhoE, Initial residual = 0, Final residual = 0, No Iterations 0
ExecutionTime = 0.18 s  ClockTime = 0 s

deltaT = 4.84052e-06
Mean and max Courant Numbers = 0.0900117 0.199947
Time = 0.000564353

diagonal:  Solving for rho, Initial residual = 0, Final residual = 0, No Iterations 0
diagonal:  Solving for rhoUx, Initial residual = 0, Final residual = 0, No Iterations 0
diagonal:  Solving for rhoE, Initial residual = 0, Final residual = 0, No Iterations 0
ExecutionTime = 0.18 s  ClockTime = 0 s

deltaT = 4.84052e-06
Mean and max Courant Numbers = 0.0900442 0.200013
Time = 0.000569193

diagonal:  Solving for rho, Initial residual = 0, Final residual = 0, No Iterations 0
diagonal:  Solving for rhoUx, Initial residual = 0, Final residual = 0, No Iterations 0
diagonal:  Solving for rhoE, Initial residual = 0, Final residual = 0, No Iterations 0
ExecutionTime = 0.2 s  ClockTime = 0 s

deltaT = 4.84052e-06
Mean and max Courant Numbers = 0.0900834 0.200079
Time = 0.000574034

diagonal:  Solving for rho, Initial residual = 0, Final residual = 0, No Iterations 0
diagonal:  Solving for rhoUx, Initial residual = 0, Final residual = 0, No Iterations 0
diagonal:  Solving for rhoE, Initial residual = 0, Final residual = 0, No Iterations 0
ExecutionTime = 0.2 s  ClockTime = 0 s

deltaT = 4.78614e-06
Mean and max Courant Numbers = 0.0891069 0.197894
Time = 0.00057882

diagonal:  Solving for rho, Initial residual = 0, Final residual = 0, No Iterations 0
diagonal:  Solving for rhoUx, Initial residual = 0, Final residual = 0, No Iterations 0
diagonal:  Solving for rhoE, Initial residual = 0, Final residual = 0, No Iterations 0
ExecutionTime = 0.2 s  ClockTime = 0 s

deltaT = 4.78614e-06
Mean and max Courant Numbers = 0.0891362 0.197957
Time = 0.000583606

diagonal:  Solving for rho, Initial residual = 0, Final residual = 0, No Iterations 0
diagonal:  Solving for rhoUx, Initial residual = 0, Final residual = 0, No Iterations 0
diagonal:  Solving for rhoE, Initial residual = 0, Final residual = 0, No Iterations 0
ExecutionTime = 0.2 s  ClockTime = 0 s

deltaT = 4.78614e-06
Mean and max Courant Numbers = 0.0891694 0.198018
Time = 0.000588392

diagonal:  Solving for rho, Initial residual = 0, Final residual = 0, No Iterations 0
diagonal:  Solving for rhoUx, Initial residual = 0, Final residual = 0, No Iterations 0
diagonal:  Solving for rhoE, Initial residual = 0, Final residual = 0, No Iterations 0
ExecutionTime = 0.2 s  ClockTime = 0 s

deltaT = 4.78614e-06
Mean and max Courant Numbers = 0.0892081 0.198078
Time = 0.000593178

diagonal:  Solving for rho, Initial residual = 0, Final residual = 0, No Iterations 0
diagonal:  Solving for rhoUx, Initial residual = 0, Final residual = 0, No Iterations 0
diagonal:  Solving for rhoE, Initial residual = 0, Final residual = 0, No Iterations 0
ExecutionTime = 0.2 s  ClockTime = 0 s

deltaT = 4.78614e-06
Mean and max Courant Numbers = 0.0892415 0.198136
Time = 0.000597965

diagonal:  Solving for rho, Initial residual = 0, Final residual = 0, No Iterations 0
diagonal:  Solving for rhoUx, Initial residual = 0, Final residual = 0, No Iterations 0
diagonal:  Solving for rhoE, Initial residual = 0, Final residual = 0, No Iterations 0
ExecutionTime = 0.2 s  ClockTime = 0 s

deltaT = 4.78614e-06
Mean and max Courant Numbers = 0.0892707 0.198194
Time = 0.000602751

diagonal:  Solving for rho, Initial residual = 0, Final residual = 0, No Iterations 0
diagonal:  Solving for rhoUx, Initial residual = 0, Final residual = 0, No Iterations 0
diagonal:  Solving for rhoE, Initial residual = 0, Final residual = 0, No Iterations 0
ExecutionTime = 0.2 s  ClockTime = 0 s

deltaT = 4.78614e-06
Mean and max Courant Numbers = 0.0893059 0.198251
Time = 0.000607537

diagonal:  Solving for rho, Initial residual = 0, Final residual = 0, No Iterations 0
diagonal:  Solving for rhoUx, Initial residual = 0, Final residual = 0, No Iterations 0
diagonal:  Solving for rhoE, Initial residual = 0, Final residual = 0, No Iterations 0
ExecutionTime = 0.2 s  ClockTime = 0 s

deltaT = 4.78614e-06
Mean and max Courant Numbers = 0.0893438 0.198307
Time = 0.000612323

diagonal:  Solving for rho, Initial residual = 0, Final residual = 0, No Iterations 0
diagonal:  Solving for rhoUx, Initial residual = 0, Final residual = 0, No Iterations 0
diagonal:  Solving for rhoE, Initial residual = 0, Final residual = 0, No Iterations 0
ExecutionTime = 0.2 s  ClockTime = 0 s

deltaT = 4.78614e-06
Mean and max Courant Numbers = 0.0893757 0.198363
Time = 0.000617109

diagonal:  Solving for rho, Initial residual = 0, Final residual = 0, No Iterations 0
diagonal:  Solving for rhoUx, Initial residual = 0, Final residual = 0, No Iterations 0
diagonal:  Solving for rhoE, Initial residual = 0, Final residual = 0, No Iterations 0
ExecutionTime = 0.2 s  ClockTime = 0 s

deltaT = 4.78614e-06
Mean and max Courant Numbers = 0.0894059 0.198417
Time = 0.000621895

diagonal:  Solving for rho, Initial residual = 0, Final residual = 0, No Iterations 0
diagonal:  Solving for rhoUx, Initial residual = 0, Final residual = 0, No Iterations 0
diagonal:  Solving for rhoE, Initial residual = 0, Final residual = 0, No Iterations 0
ExecutionTime = 0.22 s  ClockTime = 0 s

deltaT = 4.78614e-06
Mean and max Courant Numbers = 0.0894424 0.198471
Time = 0.000626681

diagonal:  Solving for rho, Initial residual = 0, Final residual = 0, No Iterations 0
diagonal:  Solving for rhoUx, Initial residual = 0, Final residual = 0, No Iterations 0
diagonal:  Solving for rhoE, Initial residual = 0, Final residual = 0, No Iterations 0
ExecutionTime = 0.22 s  ClockTime = 0 s

deltaT = 4.78614e-06
Mean and max Courant Numbers = 0.0894794 0.198524
Time = 0.000631468

diagonal:  Solving for rho, Initial residual = 0, Final residual = 0, No Iterations 0
diagonal:  Solving for rhoUx, Initial residual = 0, Final residual = 0, No Iterations 0
diagonal:  Solving for rhoE, Initial residual = 0, Final residual = 0, No Iterations 0
ExecutionTime = 0.22 s  ClockTime = 0 s

deltaT = 4.78614e-06
Mean and max Courant Numbers = 0.0895102 0.198576
Time = 0.000636254

diagonal:  Solving for rho, Initial residual = 0, Final residual = 0, No Iterations 0
diagonal:  Solving for rhoUx, Initial residual = 0, Final residual = 0, No Iterations 0
diagonal:  Solving for rhoE, Initial residual = 0, Final residual = 0, No Iterations 0
ExecutionTime = 0.22 s  ClockTime = 0 s

deltaT = 4.78614e-06
Mean and max Courant Numbers = 0.0895413 0.198627
Time = 0.00064104

diagonal:  Solving for rho, Initial residual = 0, Final residual = 0, No Iterations 0
diagonal:  Solving for rhoUx, Initial residual = 0, Final residual = 0, No Iterations 0
diagonal:  Solving for rhoE, Initial residual = 0, Final residual = 0, No Iterations 0
ExecutionTime = 0.22 s  ClockTime = 0 s

deltaT = 4.78614e-06
Mean and max Courant Numbers = 0.089579 0.198678
Time = 0.000645826

diagonal:  Solving for rho, Initial residual = 0, Final residual = 0, No Iterations 0
diagonal:  Solving for rhoUx, Initial residual = 0, Final residual = 0, No Iterations 0
diagonal:  Solving for rhoE, Initial residual = 0, Final residual = 0, No Iterations 0
ExecutionTime = 0.22 s  ClockTime = 0 s

deltaT = 4.78614e-06
Mean and max Courant Numbers = 0.089615 0.198728
Time = 0.000650612

diagonal:  Solving for rho, Initial residual = 0, Final residual = 0, No Iterations 0
diagonal:  Solving for rhoUx, Initial residual = 0, Final residual = 0, No Iterations 0
diagonal:  Solving for rhoE, Initial residual = 0, Final residual = 0, No Iterations 0
ExecutionTime = 0.22 s  ClockTime = 0 s

deltaT = 4.78614e-06
Mean and max Courant Numbers = 0.0896448 0.198777
Time = 0.000655398

diagonal:  Solving for rho, Initial residual = 0, Final residual = 0, No Iterations 0
diagonal:  Solving for rhoUx, Initial residual = 0, Final residual = 0, No Iterations 0
diagonal:  Solving for rhoE, Initial residual = 0, Final residual = 0, No Iterations 0
ExecutionTime = 0.22 s  ClockTime = 0 s

deltaT = 4.78614e-06
Mean and max Courant Numbers = 0.0896771 0.198826
Time = 0.000660184

diagonal:  Solving for rho, Initial residual = 0, Final residual = 0, No Iterations 0
diagonal:  Solving for rhoUx, Initial residual = 0, Final residual = 0, No Iterations 0
diagonal:  Solving for rhoE, Initial residual = 0, Final residual = 0, No Iterations 0
ExecutionTime = 0.22 s  ClockTime = 0 s

deltaT = 4.78614e-06
Mean and max Courant Numbers = 0.0897156 0.198874
Time = 0.000664971

diagonal:  Solving for rho, Initial residual = 0, Final residual = 0, No Iterations 0
diagonal:  Solving for rhoUx, Initial residual = 0, Final residual = 0, No Iterations 0
diagonal:  Solving for rhoE, Initial residual = 0, Final residual = 0, No Iterations 0
ExecutionTime = 0.22 s  ClockTime = 0 s

deltaT = 4.78614e-06
Mean and max Courant Numbers = 0.08975 0.198922
Time = 0.000669757

diagonal:  Solving for rho, Initial residual = 0, Final residual = 0, No Iterations 0
diagonal:  Solving for rhoUx, Initial residual = 0, Final residual = 0, No Iterations 0
diagonal:  Solving for rhoE, Initial residual = 0, Final residual = 0, No Iterations 0
ExecutionTime = 0.22 s  ClockTime = 0 s

deltaT = 4.78614e-06
Mean and max Courant Numbers = 0.0897796 0.198969
Time = 0.000674543

diagonal:  Solving for rho, Initial residual = 0, Final residual = 0, No Iterations 0
diagonal:  Solving for rhoUx, Initial residual = 0, Final residual = 0, No Iterations 0
diagonal:  Solving for rhoE, Initial residual = 0, Final residual = 0, No Iterations 0
ExecutionTime = 0.22 s  ClockTime = 0 s

deltaT = 4.78614e-06
Mean and max Courant Numbers = 0.0898137 0.199015
Time = 0.000679329

diagonal:  Solving for rho, Initial residual = 0, Final residual = 0, No Iterations 0
diagonal:  Solving for rhoUx, Initial residual = 0, Final residual = 0, No Iterations 0
diagonal:  Solving for rhoE, Initial residual = 0, Final residual = 0, No Iterations 0
ExecutionTime = 0.24 s  ClockTime = 0 s

deltaT = 4.78614e-06
Mean and max Courant Numbers = 0.089852 0.199061
Time = 0.000684115

diagonal:  Solving for rho, Initial residual = 0, Final residual = 0, No Iterations 0
diagonal:  Solving for rhoUx, Initial residual = 0, Final residual = 0, No Iterations 0
diagonal:  Solving for rhoE, Initial residual = 0, Final residual = 0, No Iterations 0
ExecutionTime = 0.24 s  ClockTime = 0 s

deltaT = 4.78614e-06
Mean and max Courant Numbers = 0.0898851 0.199106
Time = 0.000688901

diagonal:  Solving for rho, Initial residual = 0, Final residual = 0, No Iterations 0
diagonal:  Solving for rhoUx, Initial residual = 0, Final residual = 0, No Iterations 0
diagonal:  Solving for rhoE, Initial residual = 0, Final residual = 0, No Iterations 0
ExecutionTime = 0.24 s  ClockTime = 0 s

deltaT = 4.78614e-06
Mean and max Courant Numbers = 0.0899148 0.199151
Time = 0.000693687

diagonal:  Solving for rho, Initial residual = 0, Final residual = 0, No Iterations 0
diagonal:  Solving for rhoUx, Initial residual = 0, Final residual = 0, No Iterations 0
diagonal:  Solving for rhoE, Initial residual = 0, Final residual = 0, No Iterations 0
ExecutionTime = 0.24 s  ClockTime = 0 s

deltaT = 4.78614e-06
Mean and max Courant Numbers = 0.0899502 0.199196
Time = 0.000698473

diagonal:  Solving for rho, Initial residual = 0, Final residual = 0, No Iterations 0
diagonal:  Solving for rhoUx, Initial residual = 0, Final residual = 0, No Iterations 0
diagonal:  Solving for rhoE, Initial residual = 0, Final residual = 0, No Iterations 0
ExecutionTime = 0.24 s  ClockTime = 0 s

deltaT = 4.78614e-06
Mean and max Courant Numbers = 0.0899883 0.19924
Time = 0.00070326

diagonal:  Solving for rho, Initial residual = 0, Final residual = 0, No Iterations 0
diagonal:  Solving for rhoUx, Initial residual = 0, Final residual = 0, No Iterations 0
diagonal:  Solving for rhoE, Initial residual = 0, Final residual = 0, No Iterations 0
ExecutionTime = 0.24 s  ClockTime = 0 s

deltaT = 4.78614e-06
Mean and max Courant Numbers = 0.0900204 0.199283
Time = 0.000708046

diagonal:  Solving for rho, Initial residual = 0, Final residual = 0, No Iterations 0
diagonal:  Solving for rhoUx, Initial residual = 0, Final residual = 0, No Iterations 0
diagonal:  Solving for rhoE, Initial residual = 0, Final residual = 0, No Iterations 0
ExecutionTime = 0.24 s  ClockTime = 0 s

deltaT = 4.78614e-06
Mean and max Courant Numbers = 0.0900506 0.199326
Time = 0.000712832

diagonal:  Solving for rho, Initial residual = 0, Final residual = 0, No Iterations 0
diagonal:  Solving for rhoUx, Initial residual = 0, Final residual = 0, No Iterations 0
diagonal:  Solving for rhoE, Initial residual = 0, Final residual = 0, No Iterations 0
ExecutionTime = 0.24 s  ClockTime = 0 s

deltaT = 4.78614e-06
Mean and max Courant Numbers = 0.0900871 0.199369
Time = 0.000717618

diagonal:  Solving for rho, Initial residual = 0, Final residual = 0, No Iterations 0
diagonal:  Solving for rhoUx, Initial residual = 0, Final residual = 0, No Iterations 0
diagonal:  Solving for rhoE, Initial residual = 0, Final residual = 0, No Iterations 0
ExecutionTime = 0.24 s  ClockTime = 0 s

deltaT = 4.78614e-06
Mean and max Courant Numbers = 0.0901239 0.199411
Time = 0.000722404

diagonal:  Solving for rho, Initial residual = 0, Final residual = 0, No Iterations 0
diagonal:  Solving for rhoUx, Initial residual = 0, Final residual = 0, No Iterations 0
diagonal:  Solving for rhoE, Initial residual = 0, Final residual = 0, No Iterations 0
ExecutionTime = 0.24 s  ClockTime = 0 s

deltaT = 4.78614e-06
Mean and max Courant Numbers = 0.0901549 0.199453
Time = 0.00072719

diagonal:  Solving for rho, Initial residual = 0, Final residual = 0, No Iterations 0
diagonal:  Solving for rhoUx, Initial residual = 0, Final residual = 0, No Iterations 0
diagonal:  Solving for rhoE, Initial residual = 0, Final residual = 0, No Iterations 0
ExecutionTime = 0.24 s  ClockTime = 0 s

deltaT = 4.78614e-06
Mean and max Courant Numbers = 0.0901865 0.199494
Time = 0.000731976

diagonal:  Solving for rho, Initial residual = 0, Final residual = 0, No Iterations 0
diagonal:  Solving for rhoUx, Initial residual = 0, Final residual = 0, No Iterations 0
diagonal:  Solving for rhoE, Initial residual = 0, Final residual = 0, No Iterations 0
ExecutionTime = 0.24 s  ClockTime = 0 s

deltaT = 4.78614e-06
Mean and max Courant Numbers = 0.0902239 0.199536
Time = 0.000736763

diagonal:  Solving for rho, Initial residual = 0, Final residual = 0, No Iterations 0
diagonal:  Solving for rhoUx, Initial residual = 0, Final residual = 0, No Iterations 0
diagonal:  Solving for rhoE, Initial residual = 0, Final residual = 0, No Iterations 0
ExecutionTime = 0.24 s  ClockTime = 0 s

deltaT = 4.78614e-06
Mean and max Courant Numbers = 0.0902595 0.199576
Time = 0.000741549

diagonal:  Solving for rho, Initial residual = 0, Final residual = 0, No Iterations 0
diagonal:  Solving for rhoUx, Initial residual = 0, Final residual = 0, No Iterations 0
diagonal:  Solving for rhoE, Initial residual = 0, Final residual = 0, No Iterations 0
ExecutionTime = 0.25 s  ClockTime = 0 s

deltaT = 4.78614e-06
Mean and max Courant Numbers = 0.0902898 0.199616
Time = 0.000746335

diagonal:  Solving for rho, Initial residual = 0, Final residual = 0, No Iterations 0
diagonal:  Solving for rhoUx, Initial residual = 0, Final residual = 0, No Iterations 0
diagonal:  Solving for rhoE, Initial residual = 0, Final residual = 0, No Iterations 0
ExecutionTime = 0.25 s  ClockTime = 0 s

deltaT = 4.78614e-06
Mean and max Courant Numbers = 0.0903217 0.199656
Time = 0.000751121

diagonal:  Solving for rho, Initial residual = 0, Final residual = 0, No Iterations 0
diagonal:  Solving for rhoUx, Initial residual = 0, Final residual = 0, No Iterations 0
diagonal:  Solving for rhoE, Initial residual = 0, Final residual = 0, No Iterations 0
ExecutionTime = 0.25 s  ClockTime = 0 s

deltaT = 4.78614e-06
Mean and max Courant Numbers = 0.0903592 0.199696
Time = 0.000755907

diagonal:  Solving for rho, Initial residual = 0, Final residual = 0, No Iterations 0
diagonal:  Solving for rhoUx, Initial residual = 0, Final residual = 0, No Iterations 0
diagonal:  Solving for rhoE, Initial residual = 0, Final residual = 0, No Iterations 0
ExecutionTime = 0.25 s  ClockTime = 0 s

deltaT = 4.78614e-06
Mean and max Courant Numbers = 0.0903946 0.199735
Time = 0.000760693

diagonal:  Solving for rho, Initial residual = 0, Final residual = 0, No Iterations 0
diagonal:  Solving for rhoUx, Initial residual = 0, Final residual = 0, No Iterations 0
diagonal:  Solving for rhoE, Initial residual = 0, Final residual = 0, No Iterations 0
ExecutionTime = 0.25 s  ClockTime = 0 s

deltaT = 4.78614e-06
Mean and max Courant Numbers = 0.0904243 0.199774
Time = 0.000765479

diagonal:  Solving for rho, Initial residual = 0, Final residual = 0, No Iterations 0
diagonal:  Solving for rhoUx, Initial residual = 0, Final residual = 0, No Iterations 0
diagonal:  Solving for rhoE, Initial residual = 0, Final residual = 0, No Iterations 0
ExecutionTime = 0.25 s  ClockTime = 0 s

deltaT = 4.78614e-06
Mean and max Courant Numbers = 0.0904565 0.199812
Time = 0.000770265

diagonal:  Solving for rho, Initial residual = 0, Final residual = 0, No Iterations 0
diagonal:  Solving for rhoUx, Initial residual = 0, Final residual = 0, No Iterations 0
diagonal:  Solving for rhoE, Initial residual = 0, Final residual = 0, No Iterations 0
ExecutionTime = 0.25 s  ClockTime = 0 s

deltaT = 4.78614e-06
Mean and max Courant Numbers = 0.0904942 0.19985
Time = 0.000775052

diagonal:  Solving for rho, Initial residual = 0, Final residual = 0, No Iterations 0
diagonal:  Solving for rhoUx, Initial residual = 0, Final residual = 0, No Iterations 0
diagonal:  Solving for rhoE, Initial residual = 0, Final residual = 0, No Iterations 0
ExecutionTime = 0.25 s  ClockTime = 0 s

deltaT = 4.78614e-06
Mean and max Courant Numbers = 0.0905285 0.199888
Time = 0.000779838

diagonal:  Solving for rho, Initial residual = 0, Final residual = 0, No Iterations 0
diagonal:  Solving for rhoUx, Initial residual = 0, Final residual = 0, No Iterations 0
diagonal:  Solving for rhoE, Initial residual = 0, Final residual = 0, No Iterations 0
ExecutionTime = 0.25 s  ClockTime = 0 s

deltaT = 4.78614e-06
Mean and max Courant Numbers = 0.0905585 0.199925
Time = 0.000784624

diagonal:  Solving for rho, Initial residual = 0, Final residual = 0, No Iterations 0
diagonal:  Solving for rhoUx, Initial residual = 0, Final residual = 0, No Iterations 0
diagonal:  Solving for rhoE, Initial residual = 0, Final residual = 0, No Iterations 0
ExecutionTime = 0.25 s  ClockTime = 0 s

deltaT = 4.78614e-06
Mean and max Courant Numbers = 0.0905921 0.199962
Time = 0.00078941

diagonal:  Solving for rho, Initial residual = 0, Final residual = 0, No Iterations 0
diagonal:  Solving for rhoUx, Initial residual = 0, Final residual = 0, No Iterations 0
diagonal:  Solving for rhoE, Initial residual = 0, Final residual = 0, No Iterations 0
ExecutionTime = 0.25 s  ClockTime = 0 s

deltaT = 4.78614e-06
Mean and max Courant Numbers = 0.0906299 0.199999
Time = 0.000794196

diagonal:  Solving for rho, Initial residual = 0, Final residual = 0, No Iterations 0
diagonal:  Solving for rhoUx, Initial residual = 0, Final residual = 0, No Iterations 0
diagonal:  Solving for rhoE, Initial residual = 0, Final residual = 0, No Iterations 0
ExecutionTime = 0.27 s  ClockTime = 0 s

deltaT = 4.78614e-06
Mean and max Courant Numbers = 0.0906633 0.200035
Time = 0.000798982

diagonal:  Solving for rho, Initial residual = 0, Final residual = 0, No Iterations 0
diagonal:  Solving for rhoUx, Initial residual = 0, Final residual = 0, No Iterations 0
diagonal:  Solving for rhoE, Initial residual = 0, Final residual = 0, No Iterations 0
ExecutionTime = 0.27 s  ClockTime = 0 s

deltaT = 4.78614e-06
Mean and max Courant Numbers = 0.0906929 0.200072
Time = 0.000803768

diagonal:  Solving for rho, Initial residual = 0, Final residual = 0, No Iterations 0
diagonal:  Solving for rhoUx, Initial residual = 0, Final residual = 0, No Iterations 0
diagonal:  Solving for rhoE, Initial residual = 0, Final residual = 0, No Iterations 0
ExecutionTime = 0.27 s  ClockTime = 0 s

deltaT = 4.67218e-06
Mean and max Courant Numbers = 0.0885675 0.195343
Time = 0.000808441

diagonal:  Solving for rho, Initial residual = 0, Final residual = 0, No Iterations 0
diagonal:  Solving for rhoUx, Initial residual = 0, Final residual = 0, No Iterations 0
diagonal:  Solving for rhoE, Initial residual = 0, Final residual = 0, No Iterations 0
ExecutionTime = 0.27 s  ClockTime = 0 s

deltaT = 4.67218e-06
Mean and max Courant Numbers = 0.088604 0.195378
Time = 0.000813113

diagonal:  Solving for rho, Initial residual = 0, Final residual = 0, No Iterations 0
diagonal:  Solving for rhoUx, Initial residual = 0, Final residual = 0, No Iterations 0
diagonal:  Solving for rhoE, Initial residual = 0, Final residual = 0, No Iterations 0
ExecutionTime = 0.27 s  ClockTime = 0 s

deltaT = 4.67218e-06
Mean and max Courant Numbers = 0.088635 0.195412
Time = 0.000817785

diagonal:  Solving for rho, Initial residual = 0, Final residual = 0, No Iterations 0
diagonal:  Solving for rhoUx, Initial residual = 0, Final residual = 0, No Iterations 0
diagonal:  Solving for rhoE, Initial residual = 0, Final residual = 0, No Iterations 0
ExecutionTime = 0.27 s  ClockTime = 0 s

deltaT = 4.67218e-06
Mean and max Courant Numbers = 0.0886632 0.195445
Time = 0.000822457

diagonal:  Solving for rho, Initial residual = 0, Final residual = 0, No Iterations 0
diagonal:  Solving for rhoUx, Initial residual = 0, Final residual = 0, No Iterations 0
diagonal:  Solving for rhoE, Initial residual = 0, Final residual = 0, No Iterations 0
ExecutionTime = 0.27 s  ClockTime = 0 s

deltaT = 4.67218e-06
Mean and max Courant Numbers = 0.0886971 0.195478
Time = 0.000827129

diagonal:  Solving for rho, Initial residual = 0, Final residual = 0, No Iterations 0
diagonal:  Solving for rhoUx, Initial residual = 0, Final residual = 0, No Iterations 0
diagonal:  Solving for rhoE, Initial residual = 0, Final residual = 0, No Iterations 0
ExecutionTime = 0.27 s  ClockTime = 0 s

deltaT = 4.67218e-06
Mean and max Courant Numbers = 0.0887331 0.19551
Time = 0.000831802

diagonal:  Solving for rho, Initial residual = 0, Final residual = 0, No Iterations 0
diagonal:  Solving for rhoUx, Initial residual = 0, Final residual = 0, No Iterations 0
diagonal:  Solving for rhoE, Initial residual = 0, Final residual = 0, No Iterations 0
ExecutionTime = 0.27 s  ClockTime = 0 s

deltaT = 4.67218e-06
Mean and max Courant Numbers = 0.0887637 0.195543
Time = 0.000836474

diagonal:  Solving for rho, Initial residual = 0, Final residual = 0, No Iterations 0
diagonal:  Solving for rhoUx, Initial residual = 0, Final residual = 0, No Iterations 0
diagonal:  Solving for rhoE, Initial residual = 0, Final residual = 0, No Iterations 0
ExecutionTime = 0.27 s  ClockTime = 0 s

deltaT = 4.67218e-06
Mean and max Courant Numbers = 0.0887924 0.195575
Time = 0.000841146

diagonal:  Solving for rho, Initial residual = 0, Final residual = 0, No Iterations 0
diagonal:  Solving for rhoUx, Initial residual = 0, Final residual = 0, No Iterations 0
diagonal:  Solving for rhoE, Initial residual = 0, Final residual = 0, No Iterations 0
ExecutionTime = 0.27 s  ClockTime = 0 s

deltaT = 4.67218e-06
Mean and max Courant Numbers = 0.0888269 0.195606
Time = 0.000845818

diagonal:  Solving for rho, Initial residual = 0, Final residual = 0, No Iterations 0
diagonal:  Solving for rhoUx, Initial residual = 0, Final residual = 0, No Iterations 0
diagonal:  Solving for rhoE, Initial residual = 0, Final residual = 0, No Iterations 0
ExecutionTime = 0.27 s  ClockTime = 0 s

deltaT = 4.67218e-06
Mean and max Courant Numbers = 0.0888626 0.195638
Time = 0.00085049

diagonal:  Solving for rho, Initial residual = 0, Final residual = 0, No Iterations 0
diagonal:  Solving for rhoUx, Initial residual = 0, Final residual = 0, No Iterations 0
diagonal:  Solving for rhoE, Initial residual = 0, Final residual = 0, No Iterations 0
ExecutionTime = 0.28 s  ClockTime = 0 s

deltaT = 4.67218e-06
Mean and max Courant Numbers = 0.0888924 0.195669
Time = 0.000855162

diagonal:  Solving for rho, Initial residual = 0, Final residual = 0, No Iterations 0
diagonal:  Solving for rhoUx, Initial residual = 0, Final residual = 0, No Iterations 0
diagonal:  Solving for rhoE, Initial residual = 0, Final residual = 0, No Iterations 0
ExecutionTime = 0.28 s  ClockTime = 0 s

deltaT = 4.67218e-06
Mean and max Courant Numbers = 0.0889215 0.1957
Time = 0.000859835

diagonal:  Solving for rho, Initial residual = 0, Final residual = 0, No Iterations 0
diagonal:  Solving for rhoUx, Initial residual = 0, Final residual = 0, No Iterations 0
diagonal:  Solving for rhoE, Initial residual = 0, Final residual = 0, No Iterations 0
ExecutionTime = 0.28 s  ClockTime = 0 s

deltaT = 4.67218e-06
Mean and max Courant Numbers = 0.088957 0.19573
Time = 0.000864507

diagonal:  Solving for rho, Initial residual = 0, Final residual = 0, No Iterations 0
diagonal:  Solving for rhoUx, Initial residual = 0, Final residual = 0, No Iterations 0
diagonal:  Solving for rhoE, Initial residual = 0, Final residual = 0, No Iterations 0
ExecutionTime = 0.28 s  ClockTime = 0 s

deltaT = 4.67218e-06
Mean and max Courant Numbers = 0.0889921 0.195761
Time = 0.000869179

diagonal:  Solving for rho, Initial residual = 0, Final residual = 0, No Iterations 0
diagonal:  Solving for rhoUx, Initial residual = 0, Final residual = 0, No Iterations 0
diagonal:  Solving for rhoE, Initial residual = 0, Final residual = 0, No Iterations 0
ExecutionTime = 0.28 s  ClockTime = 0 s

deltaT = 4.67218e-06
Mean and max Courant Numbers = 0.0890211 0.195791
Time = 0.000873851

diagonal:  Solving for rho, Initial residual = 0, Final residual = 0, No Iterations 0
diagonal:  Solving for rhoUx, Initial residual = 0, Final residual = 0, No Iterations 0
diagonal:  Solving for rhoE, Initial residual = 0, Final residual = 0, No Iterations 0
ExecutionTime = 0.28 s  ClockTime = 0 s

deltaT = 4.67218e-06
Mean and max Courant Numbers = 0.089051 0.195821
Time = 0.000878523

diagonal:  Solving for rho, Initial residual = 0, Final residual = 0, No Iterations 0
diagonal:  Solving for rhoUx, Initial residual = 0, Final residual = 0, No Iterations 0
diagonal:  Solving for rhoE, Initial residual = 0, Final residual = 0, No Iterations 0
ExecutionTime = 0.28 s  ClockTime = 0 s

deltaT = 4.67218e-06
Mean and max Courant Numbers = 0.0890872 0.19585
Time = 0.000883195

diagonal:  Solving for rho, Initial residual = 0, Final residual = 0, No Iterations 0
diagonal:  Solving for rhoUx, Initial residual = 0, Final residual = 0, No Iterations 0
diagonal:  Solving for rhoE, Initial residual = 0, Final residual = 0, No Iterations 0
ExecutionTime = 0.28 s  ClockTime = 0 s

deltaT = 4.67218e-06
Mean and max Courant Numbers = 0.0891214 0.19588
Time = 0.000887868

diagonal:  Solving for rho, Initial residual = 0, Final residual = 0, No Iterations 0
diagonal:  Solving for rhoUx, Initial residual = 0, Final residual = 0, No Iterations 0
diagonal:  Solving for rhoE, Initial residual = 0, Final residual = 0, No Iterations 0
ExecutionTime = 0.28 s  ClockTime = 0 s

deltaT = 4.67218e-06
Mean and max Courant Numbers = 0.0891501 0.195909
Time = 0.00089254

diagonal:  Solving for rho, Initial residual = 0, Final residual = 0, No Iterations 0
diagonal:  Solving for rhoUx, Initial residual = 0, Final residual = 0, No Iterations 0
diagonal:  Solving for rhoE, Initial residual = 0, Final residual = 0, No Iterations 0
ExecutionTime = 0.28 s  ClockTime = 0 s

deltaT = 4.67218e-06
Mean and max Courant Numbers = 0.0891809 0.195938
Time = 0.000897212

diagonal:  Solving for rho, Initial residual = 0, Final residual = 0, No Iterations 0
diagonal:  Solving for rhoUx, Initial residual = 0, Final residual = 0, No Iterations 0
diagonal:  Solving for rhoE, Initial residual = 0, Final residual = 0, No Iterations 0
ExecutionTime = 0.28 s  ClockTime = 0 s

deltaT = 4.67218e-06
Mean and max Courant Numbers = 0.0892174 0.195966
Time = 0.000901884

diagonal:  Solving for rho, Initial residual = 0, Final residual = 0, No Iterations 0
diagonal:  Solving for rhoUx, Initial residual = 0, Final residual = 0, No Iterations 0
diagonal:  Solving for rhoE, Initial residual = 0, Final residual = 0, No Iterations 0
ExecutionTime = 0.28 s  ClockTime = 0 s

deltaT = 4.67218e-06
Mean and max Courant Numbers = 0.0892508 0.195995
Time = 0.000906556

diagonal:  Solving for rho, Initial residual = 0, Final residual = 0, No Iterations 0
diagonal:  Solving for rhoUx, Initial residual = 0, Final residual = 0, No Iterations 0
diagonal:  Solving for rhoE, Initial residual = 0, Final residual = 0, No Iterations 0
ExecutionTime = 0.3 s  ClockTime = 0 s

deltaT = 4.67218e-06
Mean and max Courant Numbers = 0.0892792 0.196023
Time = 0.000911229

diagonal:  Solving for rho, Initial residual = 0, Final residual = 0, No Iterations 0
diagonal:  Solving for rhoUx, Initial residual = 0, Final residual = 0, No Iterations 0
diagonal:  Solving for rhoE, Initial residual = 0, Final residual = 0, No Iterations 0
ExecutionTime = 0.3 s  ClockTime = 0 s

deltaT = 4.67218e-06
Mean and max Courant Numbers = 0.089311 0.196051
Time = 0.000915901

diagonal:  Solving for rho, Initial residual = 0, Final residual = 0, No Iterations 0
diagonal:  Solving for rhoUx, Initial residual = 0, Final residual = 0, No Iterations 0
diagonal:  Solving for rhoE, Initial residual = 0, Final residual = 0, No Iterations 0
ExecutionTime = 0.3 s  ClockTime = 0 s

deltaT = 4.67218e-06
Mean and max Courant Numbers = 0.0893479 0.196078
Time = 0.000920573

diagonal:  Solving for rho, Initial residual = 0, Final residual = 0, No Iterations 0
diagonal:  Solving for rhoUx, Initial residual = 0, Final residual = 0, No Iterations 0
diagonal:  Solving for rhoE, Initial residual = 0, Final residual = 0, No Iterations 0
ExecutionTime = 0.3 s  ClockTime = 0 s

deltaT = 4.67218e-06
Mean and max Courant Numbers = 0.0893803 0.196106
Time = 0.000925245

diagonal:  Solving for rho, Initial residual = 0, Final residual = 0, No Iterations 0
diagonal:  Solving for rhoUx, Initial residual = 0, Final residual = 0, No Iterations 0
diagonal:  Solving for rhoE, Initial residual = 0, Final residual = 0, No Iterations 0
ExecutionTime = 0.3 s  ClockTime = 0 s

deltaT = 4.67218e-06
Mean and max Courant Numbers = 0.0894084 0.196133
Time = 0.000929917

diagonal:  Solving for rho, Initial residual = 0, Final residual = 0, No Iterations 0
diagonal:  Solving for rhoUx, Initial residual = 0, Final residual = 0, No Iterations 0
diagonal:  Solving for rhoE, Initial residual = 0, Final residual = 0, No Iterations 0
ExecutionTime = 0.3 s  ClockTime = 0 s

deltaT = 4.67218e-06
Mean and max Courant Numbers = 0.0894415 0.19616
Time = 0.000934589

diagonal:  Solving for rho, Initial residual = 0, Final residual = 0, No Iterations 0
diagonal:  Solving for rhoUx, Initial residual = 0, Final residual = 0, No Iterations 0
diagonal:  Solving for rhoE, Initial residual = 0, Final residual = 0, No Iterations 0
ExecutionTime = 0.3 s  ClockTime = 0 s

deltaT = 4.67218e-06
Mean and max Courant Numbers = 0.0894784 0.196186
Time = 0.000939262

diagonal:  Solving for rho, Initial residual = 0, Final residual = 0, No Iterations 0
diagonal:  Solving for rhoUx, Initial residual = 0, Final residual = 0, No Iterations 0
diagonal:  Solving for rhoE, Initial residual = 0, Final residual = 0, No Iterations 0
ExecutionTime = 0.3 s  ClockTime = 0 s

deltaT = 4.67218e-06
Mean and max Courant Numbers = 0.0895097 0.196213
Time = 0.000943934

diagonal:  Solving for rho, Initial residual = 0, Final residual = 0, No Iterations 0
diagonal:  Solving for rhoUx, Initial residual = 0, Final residual = 0, No Iterations 0
diagonal:  Solving for rhoE, Initial residual = 0, Final residual = 0, No Iterations 0
ExecutionTime = 0.3 s  ClockTime = 0 s

deltaT = 4.67218e-06
Mean and max Courant Numbers = 0.0895382 0.196239
Time = 0.000948606

diagonal:  Solving for rho, Initial residual = 0, Final residual = 0, No Iterations 0
diagonal:  Solving for rhoUx, Initial residual = 0, Final residual = 0, No Iterations 0
diagonal:  Solving for rhoE, Initial residual = 0, Final residual = 0, No Iterations 0
ExecutionTime = 0.3 s  ClockTime = 0 s

deltaT = 4.67218e-06
Mean and max Courant Numbers = 0.0895726 0.196265
Time = 0.000953278

diagonal:  Solving for rho, Initial residual = 0, Final residual = 0, No Iterations 0
diagonal:  Solving for rhoUx, Initial residual = 0, Final residual = 0, No Iterations 0
diagonal:  Solving for rhoE, Initial residual = 0, Final residual = 0, No Iterations 0
ExecutionTime = 0.3 s  ClockTime = 0 s

deltaT = 4.67218e-06
Mean and max Courant Numbers = 0.0896088 0.19629
Time = 0.00095795

diagonal:  Solving for rho, Initial residual = 0, Final residual = 0, No Iterations 0
diagonal:  Solving for rhoUx, Initial residual = 0, Final residual = 0, No Iterations 0
diagonal:  Solving for rhoE, Initial residual = 0, Final residual = 0, No Iterations 0
ExecutionTime = 0.31 s  ClockTime = 0 s

deltaT = 4.67218e-06
Mean and max Courant Numbers = 0.0896391 0.196316
Time = 0.000962623

diagonal:  Solving for rho, Initial residual = 0, Final residual = 0, No Iterations 0
diagonal:  Solving for rhoUx, Initial residual = 0, Final residual = 0, No Iterations 0
diagonal:  Solving for rhoE, Initial residual = 0, Final residual = 0, No Iterations 0
ExecutionTime = 0.31 s  ClockTime = 0 s

deltaT = 4.67218e-06
Mean and max Courant Numbers = 0.0896682 0.196341
Time = 0.000967295

diagonal:  Solving for rho, Initial residual = 0, Final residual = 0, No Iterations 0
diagonal:  Solving for rhoUx, Initial residual = 0, Final residual = 0, No Iterations 0
diagonal:  Solving for rhoE, Initial residual = 0, Final residual = 0, No Iterations 0
ExecutionTime = 0.31 s  ClockTime = 0 s

deltaT = 4.67218e-06
Mean and max Courant Numbers = 0.0897037 0.196365
Time = 0.000971967

diagonal:  Solving for rho, Initial residual = 0, Final residual = 0, No Iterations 0
diagonal:  Solving for rhoUx, Initial residual = 0, Final residual = 0, No Iterations 0
diagonal:  Solving for rhoE, Initial residual = 0, Final residual = 0, No Iterations 0
[...]
diagonal:  Solving for rhoUx, Initial residual = 0, Final residual = 0, No Iterations 0
diagonal:  Solving for rhoE, Initial residual = 0, Final residual = 0, No Iterations 0
ExecutionTime = 2.12 s  ClockTime = 2 s

deltaT = 4.61363e-06
Mean and max Courant Numbers = 0.128472 0.199643
Time = 0.00677855

diagonal:  Solving for rho, Initial residual = 0, Final residual = 0, No Iterations 0
diagonal:  Solving for rhoUx, Initial residual = 0, Final residual = 0, No Iterations 0
diagonal:  Solving for rhoE, Initial residual = 0, Final residual = 0, No Iterations 0
ExecutionTime = 2.12 s  ClockTime = 2 s

deltaT = 4.61363e-06
Mean and max Courant Numbers = 0.128504 0.197737
Time = 0.00678316

diagonal:  Solving for rho, Initial residual = 0, Final residual = 0, No Iterations 0
diagonal:  Solving for rhoUx, Initial residual = 0, Final residual = 0, No Iterations 0
diagonal:  Solving for rhoE, Initial residual = 0, Final residual = 0, No Iterations 0
ExecutionTime = 2.12 s  ClockTime = 2 s

deltaT = 4.61363e-06
Mean and max Courant Numbers = 0.128553 0.199661
Time = 0.00678777

diagonal:  Solving for rho, Initial residual = 0, Final residual = 0, No Iterations 0
diagonal:  Solving for rhoUx, Initial residual = 0, Final residual = 0, No Iterations 0
diagonal:  Solving for rhoE, Initial residual = 0, Final residual = 0, No Iterations 0
ExecutionTime = 2.12 s  ClockTime = 2 s

deltaT = 4.61363e-06
Mean and max Courant Numbers = 0.128581 0.197744
Time = 0.00679239

diagonal:  Solving for rho, Initial residual = 0, Final residual = 0, No Iterations 0
diagonal:  Solving for rhoUx, Initial residual = 0, Final residual = 0, No Iterations 0
diagonal:  Solving for rhoE, Initial residual = 0, Final residual = 0, No Iterations 0
ExecutionTime = 2.14 s  ClockTime = 2 s

deltaT = 4.61363e-06
Mean and max Courant Numbers = 0.128617 0.199662
Time = 0.006797

diagonal:  Solving for rho, Initial residual = 0, Final residual = 0, No Iterations 0
diagonal:  Solving for rhoUx, Initial residual = 0, Final residual = 0, No Iterations 0
diagonal:  Solving for rhoE, Initial residual = 0, Final residual = 0, No Iterations 0
ExecutionTime = 2.14 s  ClockTime = 2 s

deltaT = 4.61363e-06
Mean and max Courant Numbers = 0.128659 0.197747
Time = 0.00680161

diagonal:  Solving for rho, Initial residual = 0, Final residual = 0, No Iterations 0
diagonal:  Solving for rhoUx, Initial residual = 0, Final residual = 0, No Iterations 0
diagonal:  Solving for rhoE, Initial residual = 0, Final residual = 0, No Iterations 0
ExecutionTime = 2.14 s  ClockTime = 2 s

deltaT = 4.61363e-06
Mean and max Courant Numbers = 0.128698 0.199678
Time = 0.00680623

diagonal:  Solving for rho, Initial residual = 0, Final residual = 0, No Iterations 0
diagonal:  Solving for rhoUx, Initial residual = 0, Final residual = 0, No Iterations 0
diagonal:  Solving for rhoE, Initial residual = 0, Final residual = 0, No Iterations 0
ExecutionTime = 2.14 s  ClockTime = 2 s

deltaT = 4.61363e-06
Mean and max Courant Numbers = 0.128723 0.197758
Time = 0.00681084

diagonal:  Solving for rho, Initial residual = 0, Final residual = 0, No Iterations 0
diagonal:  Solving for rhoUx, Initial residual = 0, Final residual = 0, No Iterations 0
diagonal:  Solving for rhoE, Initial residual = 0, Final residual = 0, No Iterations 0
ExecutionTime = 2.14 s  ClockTime = 2 s

deltaT = 4.61363e-06
Mean and max Courant Numbers = 0.128773 0.199681
Time = 0.00681545

diagonal:  Solving for rho, Initial residual = 0, Final residual = 0, No Iterations 0
diagonal:  Solving for rhoUx, Initial residual = 0, Final residual = 0, No Iterations 0
diagonal:  Solving for rhoE, Initial residual = 0, Final residual = 0, No Iterations 0
ExecutionTime = 2.14 s  ClockTime = 2 s

deltaT = 4.61363e-06
Mean and max Courant Numbers = 0.128807 0.198208
Time = 0.00682007

diagonal:  Solving for rho, Initial residual = 0, Final residual = 0, No Iterations 0
diagonal:  Solving for rhoUx, Initial residual = 0, Final residual = 0, No Iterations 0
diagonal:  Solving for rhoE, Initial residual = 0, Final residual = 0, No Iterations 0
ExecutionTime = 2.14 s  ClockTime = 2 s

deltaT = 4.61363e-06
Mean and max Courant Numbers = 0.12884 0.199696
Time = 0.00682468

diagonal:  Solving for rho, Initial residual = 0, Final residual = 0, No Iterations 0
diagonal:  Solving for rhoUx, Initial residual = 0, Final residual = 0, No Iterations 0
diagonal:  Solving for rhoE, Initial residual = 0, Final residual = 0, No Iterations 0
ExecutionTime = 2.14 s  ClockTime = 2 s

deltaT = 4.61363e-06
Mean and max Courant Numbers = 0.128878 0.198724
Time = 0.0068293

diagonal:  Solving for rho, Initial residual = 0, Final residual = 0, No Iterations 0
diagonal:  Solving for rhoUx, Initial residual = 0, Final residual = 0, No Iterations 0
diagonal:  Solving for rhoE, Initial residual = 0, Final residual = 0, No Iterations 0
ExecutionTime = 2.14 s  ClockTime = 2 s

deltaT = 4.61363e-06
Mean and max Courant Numbers = 0.128924 0.1997
Time = 0.00683391

diagonal:  Solving for rho, Initial residual = 0, Final residual = 0, No Iterations 0
diagonal:  Solving for rhoUx, Initial residual = 0, Final residual = 0, No Iterations 0
diagonal:  Solving for rhoE, Initial residual = 0, Final residual = 0, No Iterations 0
ExecutionTime = 2.14 s  ClockTime = 2 s

deltaT = 4.61363e-06
Mean and max Courant Numbers = 0.12895 0.198944
Time = 0.00683852

diagonal:  Solving for rho, Initial residual = 0, Final residual = 0, No Iterations 0
diagonal:  Solving for rhoUx, Initial residual = 0, Final residual = 0, No Iterations 0
diagonal:  Solving for rhoE, Initial residual = 0, Final residual = 0, No Iterations 0
ExecutionTime = 2.14 s  ClockTime = 2 s

deltaT = 4.61363e-06
Mean and max Courant Numbers = 0.128992 0.199713
Time = 0.00684314

diagonal:  Solving for rho, Initial residual = 0, Final residual = 0, No Iterations 0
diagonal:  Solving for rhoUx, Initial residual = 0, Final residual = 0, No Iterations 0
diagonal:  Solving for rhoE, Initial residual = 0, Final residual = 0, No Iterations 0
ExecutionTime = 2.15 s  ClockTime = 2 s

deltaT = 4.61363e-06
Mean and max Courant Numbers = 0.129032 0.199556
Time = 0.00684775

diagonal:  Solving for rho, Initial residual = 0, Final residual = 0, No Iterations 0
diagonal:  Solving for rhoUx, Initial residual = 0, Final residual = 0, No Iterations 0
diagonal:  Solving for rhoE, Initial residual = 0, Final residual = 0, No Iterations 0
ExecutionTime = 2.15 s  ClockTime = 2 s

deltaT = 4.61363e-06
Mean and max Courant Numbers = 0.129068 0.199717
Time = 0.00685236

diagonal:  Solving for rho, Initial residual = 0, Final residual = 0, No Iterations 0
diagonal:  Solving for rhoUx, Initial residual = 0, Final residual = 0, No Iterations 0
diagonal:  Solving for rhoE, Initial residual = 0, Final residual = 0, No Iterations 0
ExecutionTime = 2.15 s  ClockTime = 2 s

deltaT = 4.61363e-06
Mean and max Courant Numbers = 0.129099 0.199979
Time = 0.00685698

diagonal:  Solving for rho, Initial residual = 0, Final residual = 0, No Iterations 0
diagonal:  Solving for rhoUx, Initial residual = 0, Final residual = 0, No Iterations 0
diagonal:  Solving for rhoE, Initial residual = 0, Final residual = 0, No Iterations 0
ExecutionTime = 2.15 s  ClockTime = 2 s

deltaT = 4.61363e-06
Mean and max Courant Numbers = 0.129149 0.200215
Time = 0.00686159

diagonal:  Solving for rho, Initial residual = 0, Final residual = 0, No Iterations 0
diagonal:  Solving for rhoUx, Initial residual = 0, Final residual = 0, No Iterations 0
diagonal:  Solving for rhoE, Initial residual = 0, Final residual = 0, No Iterations 0
ExecutionTime = 2.15 s  ClockTime = 2 s

deltaT = 4.4648e-06
Mean and max Courant Numbers = 0.125012 0.193845
Time = 0.00686606

diagonal:  Solving for rho, Initial residual = 0, Final residual = 0, No Iterations 0
diagonal:  Solving for rhoUx, Initial residual = 0, Final residual = 0, No Iterations 0
diagonal:  Solving for rhoE, Initial residual = 0, Final residual = 0, No Iterations 0
ExecutionTime = 2.15 s  ClockTime = 2 s

deltaT = 4.4648e-06
Mean and max Courant Numbers = 0.125045 0.194098
Time = 0.00687052

diagonal:  Solving for rho, Initial residual = 0, Final residual = 0, No Iterations 0
diagonal:  Solving for rhoUx, Initial residual = 0, Final residual = 0, No Iterations 0
diagonal:  Solving for rhoE, Initial residual = 0, Final residual = 0, No Iterations 0
ExecutionTime = 2.15 s  ClockTime = 2 s

deltaT = 4.4648e-06
Mean and max Courant Numbers = 0.125084 0.19437
Time = 0.00687499

diagonal:  Solving for rho, Initial residual = 0, Final residual = 0, No Iterations 0
diagonal:  Solving for rhoUx, Initial residual = 0, Final residual = 0, No Iterations 0
diagonal:  Solving for rhoE, Initial residual = 0, Final residual = 0, No Iterations 0
ExecutionTime = 2.15 s  ClockTime = 2 s

deltaT = 4.4648e-06
Mean and max Courant Numbers = 0.125124 0.194487
Time = 0.00687945

diagonal:  Solving for rho, Initial residual = 0, Final residual = 0, No Iterations 0
diagonal:  Solving for rhoUx, Initial residual = 0, Final residual = 0, No Iterations 0
diagonal:  Solving for rhoE, Initial residual = 0, Final residual = 0, No Iterations 0
ExecutionTime = 2.15 s  ClockTime = 2 s

deltaT = 4.4648e-06
Mean and max Courant Numbers = 0.125147 0.194606
Time = 0.00688392

diagonal:  Solving for rho, Initial residual = 0, Final residual = 0, No Iterations 0
diagonal:  Solving for rhoUx, Initial residual = 0, Final residual = 0, No Iterations 0
diagonal:  Solving for rhoE, Initial residual = 0, Final residual = 0, No Iterations 0
ExecutionTime = 2.15 s  ClockTime = 2 s

deltaT = 4.4648e-06
Mean and max Courant Numbers = 0.125192 0.19496
Time = 0.00688838

diagonal:  Solving for rho, Initial residual = 0, Final residual = 0, No Iterations 0
diagonal:  Solving for rhoUx, Initial residual = 0, Final residual = 0, No Iterations 0
diagonal:  Solving for rhoE, Initial residual = 0, Final residual = 0, No Iterations 0
ExecutionTime = 2.15 s  ClockTime = 2 s

deltaT = 4.4648e-06
Mean and max Courant Numbers = 0.125227 0.19512
Time = 0.00689284

diagonal:  Solving for rho, Initial residual = 0, Final residual = 0, No Iterations 0
diagonal:  Solving for rhoUx, Initial residual = 0, Final residual = 0, No Iterations 0
diagonal:  Solving for rhoE, Initial residual = 0, Final residual = 0, No Iterations 0
ExecutionTime = 2.17 s  ClockTime = 2 s

deltaT = 4.4648e-06
Mean and max Courant Numbers = 0.125259 0.195177
Time = 0.00689731

diagonal:  Solving for rho, Initial residual = 0, Final residual = 0, No Iterations 0
diagonal:  Solving for rhoUx, Initial residual = 0, Final residual = 0, No Iterations 0
diagonal:  Solving for rhoE, Initial residual = 0, Final residual = 0, No Iterations 0
ExecutionTime = 2.17 s  ClockTime = 2 s

deltaT = 4.4648e-06
Mean and max Courant Numbers = 0.125292 0.195544
Time = 0.00690177

diagonal:  Solving for rho, Initial residual = 0, Final residual = 0, No Iterations 0
diagonal:  Solving for rhoUx, Initial residual = 0, Final residual = 0, No Iterations 0
diagonal:  Solving for rhoE, Initial residual = 0, Final residual = 0, No Iterations 0
ExecutionTime = 2.17 s  ClockTime = 2 s

deltaT = 4.4648e-06
Mean and max Courant Numbers = 0.125338 0.195755
Time = 0.00690624

diagonal:  Solving for rho, Initial residual = 0, Final residual = 0, No Iterations 0
diagonal:  Solving for rhoUx, Initial residual = 0, Final residual = 0, No Iterations 0
diagonal:  Solving for rhoE, Initial residual = 0, Final residual = 0, No Iterations 0
ExecutionTime = 2.17 s  ClockTime = 2 s

deltaT = 4.4648e-06
Mean and max Courant Numbers = 0.125365 0.195838
Time = 0.0069107

diagonal:  Solving for rho, Initial residual = 0, Final residual = 0, No Iterations 0
diagonal:  Solving for rhoUx, Initial residual = 0, Final residual = 0, No Iterations 0
diagonal:  Solving for rhoE, Initial residual = 0, Final residual = 0, No Iterations 0
ExecutionTime = 2.17 s  ClockTime = 2 s

deltaT = 4.4648e-06
Mean and max Courant Numbers = 0.125399 0.196096
Time = 0.00691517

diagonal:  Solving for rho, Initial residual = 0, Final residual = 0, No Iterations 0
diagonal:  Solving for rhoUx, Initial residual = 0, Final residual = 0, No Iterations 0
diagonal:  Solving for rhoE, Initial residual = 0, Final residual = 0, No Iterations 0
ExecutionTime = 2.17 s  ClockTime = 2 s

deltaT = 4.4648e-06
Mean and max Courant Numbers = 0.125438 0.196367
Time = 0.00691963

diagonal:  Solving for rho, Initial residual = 0, Final residual = 0, No Iterations 0
diagonal:  Solving for rhoUx, Initial residual = 0, Final residual = 0, No Iterations 0
diagonal:  Solving for rhoE, Initial residual = 0, Final residual = 0, No Iterations 0
ExecutionTime = 2.17 s  ClockTime = 2 s

deltaT = 4.4648e-06
Mean and max Courant Numbers = 0.125477 0.196481
Time = 0.0069241

diagonal:  Solving for rho, Initial residual = 0, Final residual = 0, No Iterations 0
diagonal:  Solving for rhoUx, Initial residual = 0, Final residual = 0, No Iterations 0
diagonal:  Solving for rhoE, Initial residual = 0, Final residual = 0, No Iterations 0
ExecutionTime = 2.17 s  ClockTime = 2 s

deltaT = 4.4648e-06
Mean and max Courant Numbers = 0.1255 0.196607
Time = 0.00692856

diagonal:  Solving for rho, Initial residual = 0, Final residual = 0, No Iterations 0
diagonal:  Solving for rhoUx, Initial residual = 0, Final residual = 0, No Iterations 0
diagonal:  Solving for rhoE, Initial residual = 0, Final residual = 0, No Iterations 0
ExecutionTime = 2.17 s  ClockTime = 2 s

deltaT = 4.4648e-06
Mean and max Courant Numbers = 0.125546 0.19695
Time = 0.00693303

diagonal:  Solving for rho, Initial residual = 0, Final residual = 0, No Iterations 0
diagonal:  Solving for rhoUx, Initial residual = 0, Final residual = 0, No Iterations 0
diagonal:  Solving for rhoE, Initial residual = 0, Final residual = 0, No Iterations 0
ExecutionTime = 2.17 s  ClockTime = 2 s

deltaT = 4.4648e-06
Mean and max Courant Numbers = 0.12558 0.197102
Time = 0.00693749

diagonal:  Solving for rho, Initial residual = 0, Final residual = 0, No Iterations 0
diagonal:  Solving for rhoUx, Initial residual = 0, Final residual = 0, No Iterations 0
diagonal:  Solving for rhoE, Initial residual = 0, Final residual = 0, No Iterations 0
ExecutionTime = 2.17 s  ClockTime = 2 s

deltaT = 4.4648e-06
Mean and max Courant Numbers = 0.125611 0.197154
Time = 0.00694196

diagonal:  Solving for rho, Initial residual = 0, Final residual = 0, No Iterations 0
diagonal:  Solving for rhoUx, Initial residual = 0, Final residual = 0, No Iterations 0
diagonal:  Solving for rhoE, Initial residual = 0, Final residual = 0, No Iterations 0
ExecutionTime = 2.17 s  ClockTime = 2 s

deltaT = 4.4648e-06
Mean and max Courant Numbers = 0.125645 0.197516
Time = 0.00694642

diagonal:  Solving for rho, Initial residual = 0, Final residual = 0, No Iterations 0
diagonal:  Solving for rhoUx, Initial residual = 0, Final residual = 0, No Iterations 0
diagonal:  Solving for rhoE, Initial residual = 0, Final residual = 0, No Iterations 0
ExecutionTime = 2.19 s  ClockTime = 2 s

deltaT = 4.4648e-06
Mean and max Courant Numbers = 0.125689 0.197713
Time = 0.00695089

diagonal:  Solving for rho, Initial residual = 0, Final residual = 0, No Iterations 0
diagonal:  Solving for rhoUx, Initial residual = 0, Final residual = 0, No Iterations 0
diagonal:  Solving for rhoE, Initial residual = 0, Final residual = 0, No Iterations 0
ExecutionTime = 2.19 s  ClockTime = 2 s

deltaT = 4.4648e-06
Mean and max Courant Numbers = 0.125715 0.197788
Time = 0.00695535

diagonal:  Solving for rho, Initial residual = 0, Final residual = 0, No Iterations 0
diagonal:  Solving for rhoUx, Initial residual = 0, Final residual = 0, No Iterations 0
diagonal:  Solving for rhoE, Initial residual = 0, Final residual = 0, No Iterations 0
ExecutionTime = 2.19 s  ClockTime = 2 s

deltaT = 4.4648e-06
Mean and max Courant Numbers = 0.125752 0.198065
Time = 0.00695982

diagonal:  Solving for rho, Initial residual = 0, Final residual = 0, No Iterations 0
diagonal:  Solving for rhoUx, Initial residual = 0, Final residual = 0, No Iterations 0
diagonal:  Solving for rhoE, Initial residual = 0, Final residual = 0, No Iterations 0
ExecutionTime = 2.19 s  ClockTime = 2 s

deltaT = 4.4648e-06
Mean and max Courant Numbers = 0.12579 0.198313
Time = 0.00696428

diagonal:  Solving for rho, Initial residual = 0, Final residual = 0, No Iterations 0
diagonal:  Solving for rhoUx, Initial residual = 0, Final residual = 0, No Iterations 0
diagonal:  Solving for rhoE, Initial residual = 0, Final residual = 0, No Iterations 0
ExecutionTime = 2.19 s  ClockTime = 2 s

deltaT = 4.4648e-06
Mean and max Courant Numbers = 0.125825 0.198415
Time = 0.00696875

diagonal:  Solving for rho, Initial residual = 0, Final residual = 0, No Iterations 0
diagonal:  Solving for rhoUx, Initial residual = 0, Final residual = 0, No Iterations 0
diagonal:  Solving for rhoE, Initial residual = 0, Final residual = 0, No Iterations 0
ExecutionTime = 2.19 s  ClockTime = 2 s

deltaT = 4.4648e-06
Mean and max Courant Numbers = 0.12585 0.19859
Time = 0.00697321

diagonal:  Solving for rho, Initial residual = 0, Final residual = 0, No Iterations 0
diagonal:  Solving for rhoUx, Initial residual = 0, Final residual = 0, No Iterations 0
diagonal:  Solving for rhoE, Initial residual = 0, Final residual = 0, No Iterations 0
ExecutionTime = 2.19 s  ClockTime = 2 s

deltaT = 4.4648e-06
Mean and max Courant Numbers = 0.125896 0.198899
Time = 0.00697768

diagonal:  Solving for rho, Initial residual = 0, Final residual = 0, No Iterations 0
diagonal:  Solving for rhoUx, Initial residual = 0, Final residual = 0, No Iterations 0
diagonal:  Solving for rhoE, Initial residual = 0, Final residual = 0, No Iterations 0
ExecutionTime = 2.19 s  ClockTime = 2 s

deltaT = 4.4648e-06
Mean and max Courant Numbers = 0.125928 0.199033
Time = 0.00698214

diagonal:  Solving for rho, Initial residual = 0, Final residual = 0, No Iterations 0
diagonal:  Solving for rhoUx, Initial residual = 0, Final residual = 0, No Iterations 0
diagonal:  Solving for rhoE, Initial residual = 0, Final residual = 0, No Iterations 0
ExecutionTime = 2.19 s  ClockTime = 2 s

deltaT = 4.4648e-06
Mean and max Courant Numbers = 0.125957 0.199095
Time = 0.00698661

diagonal:  Solving for rho, Initial residual = 0, Final residual = 0, No Iterations 0
diagonal:  Solving for rhoUx, Initial residual = 0, Final residual = 0, No Iterations 0
diagonal:  Solving for rhoE, Initial residual = 0, Final residual = 0, No Iterations 0
ExecutionTime = 2.19 s  ClockTime = 2 s

deltaT = 4.4648e-06
Mean and max Courant Numbers = 0.125994 0.199475
Time = 0.00699107

diagonal:  Solving for rho, Initial residual = 0, Final residual = 0, No Iterations 0
diagonal:  Solving for rhoUx, Initial residual = 0, Final residual = 0, No Iterations 0
diagonal:  Solving for rhoE, Initial residual = 0, Final residual = 0, No Iterations 0
ExecutionTime = 2.19 s  ClockTime = 2 s

deltaT = 4.4648e-06
Mean and max Courant Numbers = 0.126036 0.199645
Time = 0.00699554

diagonal:  Solving for rho, Initial residual = 0, Final residual = 0, No Iterations 0
diagonal:  Solving for rhoUx, Initial residual = 0, Final residual = 0, No Iterations 0
diagonal:  Solving for rhoE, Initial residual = 0, Final residual = 0, No Iterations 0
ExecutionTime = 2.19 s  ClockTime = 2 s

deltaT = 4.4648e-06
Mean and max Courant Numbers = 0.126058 0.199705
Time = 0.007

diagonal:  Solving for rho, Initial residual = 0, Final residual = 0, No Iterations 0
diagonal:  Solving for rhoUx, Initial residual = 0, Final residual = 0, No Iterations 0
diagonal:  Solving for rhoE, Initial residual = 0, Final residual = 0, No Iterations 0
ExecutionTime = 2.2 s  ClockTime = 2 s

--> FOAM Warning :     functionObjects::mag mag(U) cannot find required object U of type volScalarField
--> FOAM Warning :     functionObjects::mag mag(U) cannot find required object U of type surfaceScalarField
    functionObjects::mag mag(U) writing field: mag(U)
End

