--------------------------------------------------------------------------
WARNING: Linux kernel CMA support was requested via the
btl_vader_single_copy_mechanism MCA variable, but CMA support is
not available due to restrictive ptrace settings.

The vader shared memory BTL will fall back on another single-copy
mechanism if one is available. This may result in lower performance.

  Local host: DESKTOP-KF81SG4
--------------------------------------------------------------------------
/*---------------------------------------------------------------------------*\
  =========                 |
  \\      /  F ield         | OpenFOAM: The Open Source CFD Toolbox
   \\    /   O peration     | Website:  https://openfoam.org
    \\  /    A nd           | Version:  7
     \\/     M anipulation  |
\*---------------------------------------------------------------------------*/
Build  : 7-1ff648926f77
Exec   : dsmcFoam -parallel
Date   : Jun 26 2020
Time   : 21:58:16
Host   : "DESKTOP-KF81SG4"
PID    : 32575
I/O    : uncollated
Case   : /home/anthonygay1812/OpenFOAM/tutorials/tutorials/discreteMethods/dsmcFoam/wedge15Ma5
nProcs : 4
Slaves : 
3
(
"DESKTOP-KF81SG4.32576"
"DESKTOP-KF81SG4.32577"
"DESKTOP-KF81SG4.32578"
)

Pstream initialized with:
    floatTransfer      : 0
    nProcsSimpleSum    : 0
    commsType          : nonBlocking
    polling iterations : 0
sigFpe : Enabling floating point exception trapping (FOAM_SIGFPE).
fileModificationChecking : Monitoring run-time modified files using timeStampMaster (fileModificationSkew 10)
allowSystemOperations : Allowing user-supplied system call operations

// * * * * * * * * * * * * * * * * * * * * * * * * * * * * * * * * * * * * * //
Create time

Create mesh for time = 0


Constructing dsmcCloud 
Selecting BinaryCollisionModel LarsenBorgnakkeVariableHardSphere
Selecting WallInteractionModel MaxwellianThermal
Selecting InflowBoundaryModel FreeStream

Constructing constant properties for
    N2
    O2

Starting time loop

fieldAverage fieldAverage1:
    Starting averaging at time 0

forces forces1:
    Not including porosity effects
Time = 2e-06

--> FOAM Warning : 
    From function void Foam::particle::locate(const vector&, Foam::label, bool, Foam::string)
    in file particle/particle.C at line 495
    Particle initialised with a location outside of the mesh.
--> FOAM Warning : 
    From function void Foam::particle::locate(const vector&, Foam::label, bool, Foam::string)
    in file particle/particle.C at line 495
    Particle initialised with a location outside of the mesh.
--> FOAM Warning : 
    From function void Foam::particle::locate(const vector&, Foam::label, bool, Foam::string)
    in file particle/particle.C at line 495
    Particle initialised with a location outside of the mesh.
--> FOAM Warning : 
    From function void Foam::particle::locate(const vector&, Foam::label, bool, Foam::string)
    in file particle/particle.C at line 495
    Particle initialised with a location outside of the mesh.
--> FOAM Warning : 
    From function void Foam::particle::locate(const vector&, Foam::label, bool, Foam::string)
    in file particle/particle.C at line 495
    Particle initialised with a location outside of the mesh.
    Particles inserted              = 39
    Collisions                      = 459
    Acceptance rate                 = 0.997826087

Cloud name: dsmc
    Number of dsmc particles        = 20863
    Number of molecules             = 1.04315e+17
    Mass in system                  = 5.0052907e-09
    Average linear momentum         = (8.278806468e-23 -1.283297323e-25 -7.713336468e-26)
   |Average linear momentum|        = 8.278820008e-23
    Average linear kinetic energy   = 7.801681869e-20
    Average internal energy         = 4.110242146e-21
    Average total energy            = 8.212706083e-20

ExecutionTime = 0.36 s  ClockTime = 1 s

    Reading/initialising field rhoNMean
    Reading/initialising field rhoMMean
    Reading/initialising field dsmcRhoNMean
    Reading/initialising field momentumMean
    Reading/initialising field linearKEMean
    Reading/initialising field internalEMean
    Reading/initialising field iDofMean
    Reading/initialising field qMean
    Reading/initialising field fDMean
fieldAverage fieldAverage1 write:
    Calculating averages

Time = 4e-06

--> FOAM Warning : 
    From function void Foam::particle::locate(const vector&, Foam::label, bool, Foam::string)
    in file particle/particle.C at line 495
    Particle initialised with a location outside of the mesh.
--> FOAM Warning : 
    From function void Foam::particle::locate(const vector&, Foam::label, bool, Foam::string)
    in file particle/particle.C at line 495
    Particle initialised with a location outside of the mesh.
--> FOAM Warning : 
    From function void Foam::particle::locate(const vector&, Foam::label, bool, Foam::string)
    in file particle/particle.C at line 495
    Particle initialised with a location outside of the mesh.
--> FOAM Warning : 
    From function void Foam::particle::locate(const vector&, Foam::label, bool, Foam::string)
    in file particle/particle.C at line 495
    Particle initialised with a location outside of the mesh.
--> FOAM Warning : 
    From function void Foam::particle::locate(const vector&, Foam::label, bool, Foam::string)
    in file particle/particle.C at line 495
    Particle initialised with a location outside of the mesh.
--> FOAM Warning : 
    From function void Foam::particle::locate(const vector&, Foam::label, bool, Foam::string)
    in file particle/particle.C at line 495
    Particle initialised with a location outside of the mesh.
    Particles inserted              = 71
    Collisions                      = 477
    Acceptance rate                 = 0.9835051546

Cloud name: dsmc
    Number of dsmc particles        = 20792
    Number of molecules             = 1.0396e+17
    Mass in system                  = 4.9882867e-09
    Average linear momentum         = (8.224788059e-23 -5.496028647e-26 -8.984264612e-26)
   |Average linear momentum|        = 8.224794802e-23
    Average linear kinetic energy   = 7.757912868e-20
    Average internal energy         = 4.125947316e-21
    Average total energy            = 8.1705076e-20

ExecutionTime = 0.36 s  ClockTime = 1 s

fieldAverage fieldAverage1 write:
    Calculating averages

Time = 6e-06

--> FOAM Warning : 
    From function void Foam::particle::locate(const vector&, Foam::label, bool, Foam::string)
    in file particle/particle.C at line 495
    Particle initialised with a location outside of the mesh.
--> FOAM Warning : 
    From function void Foam::particle::locate(const vector&, Foam::label, bool, Foam::string)
    in file particle/particle.C at line 495
    Particle initialised with a location outside of the mesh.
--> FOAM Warning : 
    From function void Foam::particle::locate(const vector&, Foam::label, bool, Foam::string)
    in file particle/particle.C at line 495
    Particle initialised with a location outside of the mesh.
--> FOAM Warning : 
    From function void Foam::particle::locate(const vector&, Foam::label, bool, Foam::string)
    in file particle/particle.C at line 495
    Particle initialised with a location outside of the mesh.
--> FOAM Warning : 
    From function void Foam::particle::locate(const vector&, Foam::label, bool, Foam::string)
    in file particle/particle.C at line 495
    Particle initialised with a location outside of the mesh.
--> FOAM Warning : 
    From function void Foam::particle::locate(const vector&, Foam::label, bool, Foam::string)
    in file particle/particle.C at line 495
    Particle initialised with a location outside of the mesh.
--> FOAM Warning : 
    From function void Foam::particle::locate(const vector&, Foam::label, bool, Foam::string)
    in file particle/particle.C at line 495
    Particle initialised with a location outside of the mesh.
--> FOAM Warning : 
    From function void Foam::particle::locate(const vector&, Foam::label, bool, Foam::string)
    in file particle/particle.C at line 495
    Particle initialised with a location outside of the mesh.
    Particles inserted              = 69
    Collisions                      = 549
    Acceptance rate                 = 0.9597902098

Cloud name: dsmc
    Number of dsmc particles        = 20703
    Number of molecules             = 1.03515e+17
    Mass in system                  = 4.9671639e-09
    Average linear momentum         = (8.172148463e-23 1.814221897e-26 -8.238789785e-26)
   |Average linear momentum|        = 8.172152817e-23
    Average linear kinetic energy   = 7.71365994e-20
    Average internal energy         = 4.13749666e-21
    Average total energy            = 8.127409606e-20

ExecutionTime = 0.38 s  ClockTime = 1 s

fieldAverage fieldAverage1 write:
    Calculating averages

Time = 8e-06

--> FOAM Warning : 
    From function void Foam::particle::locate(const vector&, Foam::label, bool, Foam::string)
    in file particle/particle.C at line 495
    Particle initialised with a location outside of the mesh.
--> FOAM Warning : 
    From function void Foam::particle::locate(const vector&, Foam::label, bool, Foam::string)
    in file particle/particle.C at line 495
    Particle initialised with a location outside of the mesh.
--> FOAM Warning : 
    From function void Foam::particle::locate(const vector&, Foam::label, bool, Foam::string)
    in file particle/particle.C at line 495
    Particle initialised with a location outside of the mesh.
--> FOAM Warning : 
    From function void Foam::particle::locate(const vector&, Foam::label, bool, Foam::string)
    in file particle/particle.C at line 495
    Particle initialised with a location outside of the mesh.
--> FOAM Warning : 
    From function void Foam::particle::locate(const vector&, Foam::label, bool, Foam::string)
    in file particle/particle.C at line 495
    Particle initialised with a location outside of the mesh.
--> FOAM Warning : 
    From function void Foam::particle::locate(const vector&, Foam::label, bool, Foam::string)
    in file particle/particle.C at line 495
    Particle initialised with a location outside of the mesh.
    Particles inserted              = 51
    Collisions                      = 615
    Acceptance rate                 = 0.9234234234

Cloud name: dsmc
    Number of dsmc particles        = 20608
    Number of molecules             = 1.0304e+17
    Mass in system                  = 4.9448447e-09
    Average linear momentum         = (8.129258964e-23 8.158106341e-26 -7.800872854e-26)
   |Average linear momentum|        = 8.129266801e-23
    Average linear kinetic energy   = 7.676348545e-20
    Average internal energy         = 4.149412665e-21
    Average total energy            = 8.091289812e-20

ExecutionTime = 0.39 s  ClockTime = 1 s

fieldAverage fieldAverage1 write:
    Calculating averages

Time = 1e-05

--> FOAM Warning : 
    From function void Foam::particle::locate(const vector&, Foam::label, bool, Foam::string)
    in file particle/particle.C at line 495
    Particle initialised with a location outside of the mesh.
--> FOAM Warning : 
    From function void Foam::particle::locate(const vector&, Foam::label, bool, Foam::string)
    in file particle/particle.C at line 495
    Particle initialised with a location outside of the mesh.
--> FOAM Warning : 
    From function void Foam::particle::locate(const vector&, Foam::label, bool, Foam::string)
    in file particle/particle.C at line 495
    Particle initialised with a location outside of the mesh.
--> FOAM Warning : 
    From function void Foam::particle::locate(const vector&, Foam::label, bool, Foam::string)
    in file particle/particle.C at line 495
    Particle initialised with a location outside of the mesh.
    Particles inserted              = 43
    Collisions                      = 635
    Acceptance rate                 = 0.9007092199

Cloud name: dsmc
    Number of dsmc particles        = 20495
    Number of molecules             = 1.02475e+17
    Mass in system                  = 4.9182081e-09
    Average linear momentum         = (8.090046025e-23 1.5094285e-25 -9.506647178e-26)
   |Average linear momentum|        = 8.090065692e-23
    Average linear kinetic energy   = 7.643070936e-20
    Average internal energy         = 4.167027771e-21
    Average total energy            = 8.059773713e-20

ExecutionTime = 0.39 s  ClockTime = 1 s

fieldAverage fieldAverage1 write:
    Calculating averages

Time = 1.2e-05

--> FOAM Warning : 
    From function void Foam::particle::locate(const vector&, Foam::label, bool, Foam::string)
    in file particle/particle.C at line 495
    Particle initialised with a location outside of the mesh.
--> FOAM Warning : 
    From function void Foam::particle::locate(const vector&, Foam::label, bool, Foam::string)
    in file particle/particle.C at line 495
    Particle initialised with a location outside of the mesh.
--> FOAM Warning : 
    From function void Foam::particle::locate(const vector&, Foam::label, bool, Foam::string)
    in file particle/particle.C at line 495
    Particle initialised with a location outside of the mesh.
--> FOAM Warning : 
    From function void Foam::particle::locate(const vector&, Foam::label, bool, Foam::string)
    in file particle/particle.C at line 495
    Particle initialised with a location outside of the mesh.
--> FOAM Warning : 
    From function void Foam::particle::locate(const vector&, Foam::label, bool, Foam::string)
    in file particle/particle.C at line 495
    Particle initialised with a location outside of the mesh.
--> FOAM Warning : 
    From function void Foam::particle::locate(const vector&, Foam::label, bool, Foam::string)
    in file particle/particle.C at line 495
    Particle initialised with a location outside of the mesh.
--> FOAM Warning : 
    From function void Foam::particle::locate(const vector&, Foam::label, bool, Foam::string)
    in file particle/particle.C at line 495
    Particle initialised with a location outside of the mesh.
    Particles inserted              = 68
    Collisions                      = 700
    Acceptance rate                 = 0.8962868118

Cloud name: dsmc
    Number of dsmc particles        = 20409
    Number of molecules             = 1.02045e+17
    Mass in system                  = 4.8979814e-09
    Average linear momentum         = (8.045818923e-23 2.086553608e-25 -1.104786233e-25)
   |Average linear momentum|        = 8.045853563e-23
    Average linear kinetic energy   = 7.603224528e-20
    Average internal energy         = 4.18539588e-21
    Average total energy            = 8.021764116e-20

ExecutionTime = 0.41 s  ClockTime = 1 s

fieldAverage fieldAverage1 write:
    Calculating averages

Time = 1.4e-05

--> FOAM Warning : 
    From function void Foam::particle::locate(const vector&, Foam::label, bool, Foam::string)
    in file particle/particle.C at line 495
    Particle initialised with a location outside of the mesh.
--> FOAM Warning : 
    From function void Foam::particle::locate(const vector&, Foam::label, bool, Foam::string)
    in file particle/particle.C at line 495
    Particle initialised with a location outside of the mesh.
--> FOAM Warning : 
    From function void Foam::particle::locate(const vector&, Foam::label, bool, Foam::string)
    in file particle/particle.C at line 495
    Particle initialised with a location outside of the mesh.
--> FOAM Warning : 
    From function void Foam::particle::locate(const vector&, Foam::label, bool, Foam::string)
    in file particle/particle.C at line 495
    Particle initialised with a location outside of the mesh.
--> FOAM Warning : 
    From function void Foam::particle::locate(const vector&, Foam::label, bool, Foam::string)
    in file particle/particle.C at line 495
    Particle initialised with a location outside of the mesh.
--> FOAM Warning : 
    From function void Foam::particle::locate(const vector&, Foam::label, bool, Foam::string)
    in file particle/particle.C at line 495
    Particle initialised with a location outside of the mesh.
--> FOAM Warning : 
    From function void Foam::particle::locate(const vector&, Foam::label, bool, Foam::string)
    in file particle/particle.C at line 495
    Particle initialised with a location outside of the mesh.
    Particles inserted              = 57
    Collisions                      = 679
    Acceptance rate                 = 0.8605830165

Cloud name: dsmc
    Number of dsmc particles        = 20304
    Number of molecules             = 1.0152e+17
    Mass in system                  = 4.8729069e-09
    Average linear momentum         = (8.002709478e-23 2.727521246e-25 -9.777152163e-26)
   |Average linear momentum|        = 8.002761931e-23
    Average linear kinetic energy   = 7.565853985e-20
    Average internal energy         = 4.204263121e-21
    Average total energy            = 7.986280297e-20

ExecutionTime = 0.43 s  ClockTime = 1 s

fieldAverage fieldAverage1 write:
    Calculating averages

Time = 1.6e-05

--> FOAM Warning : 
    From function void Foam::particle::locate(const vector&, Foam::label, bool, Foam::string)
    in file particle/particle.C at line 495
    Particle initialised with a location outside of the mesh.
--> FOAM Warning : 
    From function void Foam::particle::locate(const vector&, Foam::label, bool, Foam::string)
    in file particle/particle.C at line 495
    Particle initialised with a location outside of the mesh.
--> FOAM Warning : 
    From function void Foam::particle::locate(const vector&, Foam::label, bool, Foam::string)
    in file particle/particle.C at line 495
    Particle initialised with a location outside of the mesh.
    Particles inserted              = 46
    Collisions                      = 649
    Acceptance rate                 = 0.8215189873

Cloud name: dsmc
    Number of dsmc particles        = 20206
    Number of molecules             = 1.0103e+17
    Mass in system                  = 4.8496254e-09
    Average linear momentum         = (7.959790267e-23 3.624774848e-25 -6.913703012e-26)
   |Average linear momentum|        = 7.959875803e-23
    Average linear kinetic energy   = 7.530656639e-20
    Average internal energy         = 4.222948295e-21
    Average total energy            = 7.952951469e-20

ExecutionTime = 0.43 s  ClockTime = 1 s

fieldAverage fieldAverage1 write:
    Calculating averages

Time = 1.8e-05

--> FOAM Warning : 
    From function void Foam::particle::locate(const vector&, Foam::label, bool, Foam::string)
    in file particle/particle.C at line 495
    Particle initialised with a location outside of the mesh.
    Particles inserted              = 29
    Collisions                      = 733
    Acceptance rate                 = 0.8339021615

Cloud name: dsmc
    Number of dsmc particles        = 20095
    Number of molecules             = 1.00475e+17
    Mass in system                  = 4.8230235e-09
    Average linear momentum         = (7.935191828e-23 4.163764109e-25 -9.448539879e-26)
   |Average linear momentum|        = 7.935306693e-23
    Average linear kinetic energy   = 7.508527588e-20
    Average internal energy         = 4.24008706e-21
    Average total energy            = 7.932536294e-20

ExecutionTime = 0.44 s  ClockTime = 1 s

fieldAverage fieldAverage1 write:
    Calculating averages

Time = 2e-05

--> FOAM Warning : 
    From function void Foam::particle::locate(const vector&, Foam::label, bool, Foam::string)
    in file particle/particle.C at line 495
    Particle initialised with a location outside of the mesh.
--> FOAM Warning : 
    From function void Foam::particle::locate(const vector&, Foam::label, bool, Foam::string)
    in file particle/particle.C at line 495
    Particle initialised with a location outside of the mesh.
--> FOAM Warning : 
    From function void Foam::particle::locate(const vector&, Foam::label, bool, Foam::string)
    in file particle/particle.C at line 495
    Particle initialised with a location outside of the mesh.
--> FOAM Warning : 
    From function void Foam::particle::locate(const vector&, Foam::label, bool, Foam::string)
    in file particle/particle.C at line 495
    Particle initialised with a location outside of the mesh.
--> FOAM Warning : 
    From function void Foam::particle::locate(const vector&, Foam::label, bool, Foam::string)
    in file particle/particle.C at line 495
    Particle initialised with a location outside of the mesh.
--> FOAM Warning : 
    From function void Foam::particle::locate(const vector&, Foam::label, bool, Foam::string)
    in file particle/particle.C at line 495
    Particle initialised with a location outside of the mesh.
--> FOAM Warning : 
    From function void Foam::particle::locate(const vector&, Foam::label, bool, Foam::string)
    in file particle/particle.C at line 495
    Particle initialised with a location outside of the mesh.
--> FOAM Warning : 
    From function void Foam::particle::locate(const vector&, Foam::label, bool, Foam::string)
    in file particle/particle.C at line 495
    Particle initialised with a location outside of the mesh.
--> FOAM Warning : 
    From function void Foam::particle::locate(const vector&, Foam::label, bool, Foam::string)
    in file particle/particle.C at line 495
    Particle initialised with a location outside of the mesh.
    Particles inserted              = 56
    Collisions                      = 719
    Acceptance rate                 = 0.8283410138

Cloud name: dsmc
    Number of dsmc particles        = 20022
    Number of molecules             = 1.0011e+17
    Mass in system                  = 4.8049587e-09
    Average linear momentum         = (7.892728534e-23 4.584997621e-25 -9.743353304e-26)
   |Average linear momentum|        = 7.892867721e-23
    Average linear kinetic energy   = 7.472876087e-20
    Average internal energy         = 4.26543677e-21
    Average total energy            = 7.899419764e-20

ExecutionTime = 0.44 s  ClockTime = 1 s

fieldAverage fieldAverage1 write:
    Calculating averages

Time = 2.2e-05

--> FOAM Warning : 
    From function void Foam::particle::locate(const vector&, Foam::label, bool, Foam::string)
    in file particle/particle.C at line 495
    Particle initialised with a location outside of the mesh.
--> FOAM Warning : 
    From function void Foam::particle::locate(const vector&, Foam::label, bool, Foam::string)
    in file particle/particle.C at line 495
    Particle initialised with a location outside of the mesh.
--> FOAM Warning : 
    From function void Foam::particle::locate(const vector&, Foam::label, bool, Foam::string)
    in file particle/particle.C at line 495
    Particle initialised with a location outside of the mesh.
--> FOAM Warning : 
    From function void Foam::particle::locate(const vector&, Foam::label, bool, Foam::string)
    in file particle/particle.C at line 495
    Particle initialised with a location outside of the mesh.
--> FOAM Warning : 
    From function void Foam::particle::locate(const vector&, Foam::label, bool, Foam::string)
    in file particle/particle.C at line 495
    Particle initialised with a location outside of the mesh.
--> FOAM Warning : 
    From function void Foam::particle::locate(const vector&, Foam::label, bool, Foam::string)
    in file particle/particle.C at line 495
    Particle initialised with a location outside of the mesh.
--> FOAM Warning : 
    From function void Foam::particle::locate(const vector&, Foam::label, bool, Foam::string)
    in file particle/particle.C at line 495
    Particle initialised with a location outside of the mesh.
    Particles inserted              = 49
    Collisions                      = 727
    Acceptance rate                 = 0.7885032538

Cloud name: dsmc
    Number of dsmc particles        = 19929
    Number of molecules             = 9.9645e+16
    Mass in system                  = 4.7822439e-09
    Average linear momentum         = (7.854083274e-23 5.046912269e-25 -1.134160532e-25)
   |Average linear momentum|        = 7.854253614e-23
    Average linear kinetic energy   = 7.437906363e-20
    Average internal energy         = 4.286748382e-21
    Average total energy            = 7.866581201e-20

ExecutionTime = 0.48 s  ClockTime = 1 s

fieldAverage fieldAverage1 write:
    Calculating averages

Time = 2.4e-05

--> FOAM Warning : 
    From function void Foam::particle::locate(const vector&, Foam::label, bool, Foam::string)
    in file particle/particle.C at line 495
    Particle initialised with a location outside of the mesh.
    Particles inserted              = 20
    Collisions                      = 724
    Acceptance rate                 = 0.7947310648

Cloud name: dsmc
    Number of dsmc particles        = 19776
    Number of molecules             = 9.888e+16
    Mass in system                  = 4.7451819e-09
    Average linear momentum         = (7.827712308e-23 5.721226851e-25 -1.197590477e-25)
   |Average linear momentum|        = 7.827930546e-23
    Average linear kinetic energy   = 7.41364674e-20
    Average internal energy         = 4.317335726e-21
    Average total energy            = 7.845380313e-20

ExecutionTime = 0.49 s  ClockTime = 1 s

fieldAverage fieldAverage1 write:
    Calculating averages

Time = 2.6e-05

--> FOAM Warning : 
    From function void Foam::particle::locate(const vector&, Foam::label, bool, Foam::string)
    in file particle/particle.C at line 495
    Particle initialised with a location outside of the mesh.
    Particles inserted              = 24
    Collisions                      = 708
    Acceptance rate                 = 0.7588424437

Cloud name: dsmc
    Number of dsmc particles        = 19653
    Number of molecules             = 9.8265e+16
    Mass in system                  = 4.715459e-09
    Average linear momentum         = (7.802941339e-23 6.30723445e-25 -1.306555446e-25)
   |Average linear momentum|        = 7.803207185e-23
    Average linear kinetic energy   = 7.391979663e-20
    Average internal energy         = 4.339008313e-21
    Average total energy            = 7.825880495e-20

ExecutionTime = 0.51 s  ClockTime = 1 s

fieldAverage fieldAverage1 write:
    Calculating averages

Time = 2.8e-05

--> FOAM Warning : 
    From function void Foam::particle::locate(const vector&, Foam::label, bool, Foam::string)
    in file particle/particle.C at line 495
    Particle initialised with a location outside of the mesh.
--> FOAM Warning : 
    From function void Foam::particle::locate(const vector&, Foam::label, bool, Foam::string)
    in file particle/particle.C at line 495
    Particle initialised with a location outside of the mesh.
--> FOAM Warning : 
    From function void Foam::particle::locate(const vector&, Foam::label, bool, Foam::string)
    in file particle/particle.C at line 495
    Particle initialised with a location outside of the mesh.
--> FOAM Warning : 
    From function void Foam::particle::locate(const vector&, Foam::label, bool, Foam::string)
    in file particle/particle.C at line 495
    Particle initialised with a location outside of the mesh.
--> FOAM Warning : 
    From function void Foam::particle::locate(const vector&, Foam::label, bool, Foam::string)
    in file particle/particle.C at line 495
    Particle initialised with a location outside of the mesh.
--> FOAM Warning : 
    From function void Foam::particle::locate(const vector&, Foam::label, bool, Foam::string)
    in file particle/particle.C at line 495
    Particle initialised with a location outside of the mesh.
    Particles inserted              = 46
    Collisions                      = 739
    Acceptance rate                 = 0.7787144362

Cloud name: dsmc
    Number of dsmc particles        = 19540
    Number of molecules             = 9.77e+16
    Mass in system                  = 4.6878625e-09
    Average linear momentum         = (7.763101777e-23 7.134521837e-25 -8.484000275e-26)
   |Average linear momentum|        = 7.763434248e-23
    Average linear kinetic energy   = 7.357311717e-20
    Average internal energy         = 4.380950567e-21
    Average total energy            = 7.795406774e-20

ExecutionTime = 0.54 s  ClockTime = 1 s

fieldAverage fieldAverage1 write:
    Calculating averages

Time = 3e-05

--> FOAM Warning : 
    From function void Foam::particle::locate(const vector&, Foam::label, bool, Foam::string)
    in file particle/particle.C at line 495
    Particle initialised with a location outside of the mesh.
--> FOAM Warning : 
    From function void Foam::particle::locate(const vector&, Foam::label, bool, Foam::string)
    in file particle/particle.C at line 495
    Particle initialised with a location outside of the mesh.
--> FOAM Warning : 
    From function void Foam::particle::locate(const vector&, Foam::label, bool, Foam::string)
    in file particle/particle.C at line 495
    Particle initialised with a location outside of the mesh.
    Particles inserted              = 52
    Collisions                      = 765
    Acceptance rate                 = 0.7846153846

Cloud name: dsmc
    Number of dsmc particles        = 19433
    Number of molecules             = 9.7165e+16
    Mass in system                  = 4.6618265e-09
    Average linear momentum         = (7.724204082e-23 7.766270711e-25 -6.548404901e-26)
   |Average linear momentum|        = 7.724597276e-23
    Average linear kinetic energy   = 7.325791947e-20
    Average internal energy         = 4.402243005e-21
    Average total energy            = 7.766016248e-20

ExecutionTime = 0.56 s  ClockTime = 1 s

fieldAverage fieldAverage1 write:
    Calculating averages

Time = 3.2e-05

--> FOAM Warning : 
    From function void Foam::particle::locate(const vector&, Foam::label, bool, Foam::string)
    in file particle/particle.C at line 495
    Particle initialised with a location outside of the mesh.
--> FOAM Warning : 
    From function void Foam::particle::locate(const vector&, Foam::label, bool, Foam::string)
    in file particle/particle.C at line 495
    Particle initialised with a location outside of the mesh.
--> FOAM Warning : 
    From function void Foam::particle::locate(const vector&, Foam::label, bool, Foam::string)
    in file particle/particle.C at line 495
    Particle initialised with a location outside of the mesh.
--> FOAM Warning : 
    From function void Foam::particle::locate(const vector&, Foam::label, bool, Foam::string)
    in file particle/particle.C at line 495
    Particle initialised with a location outside of the mesh.
--> FOAM Warning : 
    From function void Foam::particle::locate(const vector&, Foam::label, bool, Foam::string)
    in file particle/particle.C at line 495
    Particle initialised with a location outside of the mesh.
    Particles inserted              = 35
    Collisions                      = 754
    Acceptance rate                 = 0.7577889447

Cloud name: dsmc
    Number of dsmc particles        = 19323
    Number of molecules             = 9.6615e+16
    Mass in system                  = 4.6351592e-09
    Average linear momentum         = (7.693311322e-23 8.413201121e-25 -8.338685124e-26)
   |Average linear momentum|        = 7.69377585e-23
    Average linear kinetic energy   = 7.299445931e-20
    Average internal energy         = 4.418813797e-21
    Average total energy            = 7.741327311e-20

ExecutionTime = 0.57 s  ClockTime = 1 s

fieldAverage fieldAverage1 write:
    Calculating averages

Time = 3.4e-05

--> FOAM Warning : 
    From function void Foam::particle::locate(const vector&, Foam::label, bool, Foam::string)
    in file particle/particle.C at line 495
    Particle initialised with a location outside of the mesh.
    Particles inserted              = 15
    Collisions                      = 752
    Acceptance rate                 = 0.7452923687

Cloud name: dsmc
    Number of dsmc particles        = 19194
    Number of molecules             = 9.597e+16
    Mass in system                  = 4.6041075e-09
    Average linear momentum         = (7.663954526e-23 9.413575353e-25 -8.113827143e-26)
   |Average linear momentum|        = 7.66453693e-23
    Average linear kinetic energy   = 7.272532499e-20
    Average internal energy         = 4.464174137e-21
    Average total energy            = 7.718949912e-20

ExecutionTime = 0.57 s  ClockTime = 1 s

fieldAverage fieldAverage1 write:
    Calculating averages

Time = 3.6e-05

--> FOAM Warning : 
    From function void Foam::particle::locate(const vector&, Foam::label, bool, Foam::string)
    in file particle/particle.C at line 495
    Particle initialised with a location outside of the mesh.
--> FOAM Warning : 
    From function void Foam::particle::locate(const vector&, Foam::label, bool, Foam::string)
    in file particle/particle.C at line 495
    Particle initialised with a location outside of the mesh.
--> FOAM Warning : 
    From function void Foam::particle::locate(const vector&, Foam::label, bool, Foam::string)
    in file particle/particle.C at line 495
    Particle initialised with a location outside of the mesh.
--> FOAM Warning : 
    From function void Foam::particle::locate(const vector&, Foam::label, bool, Foam::string)
    in file particle/particle.C at line 495
    Particle initialised with a location outside of the mesh.
--> FOAM Warning : 
    From function void Foam::particle::locate(const vector&, Foam::label, bool, Foam::string)
    in file particle/particle.C at line 495
    Particle initialised with a location outside of the mesh.
    Particles inserted              = 51
    Collisions                      = 714
    Acceptance rate                 = 0.7468619247

Cloud name: dsmc
    Number of dsmc particles        = 19067
    Number of molecules             = 9.5335e+16
    Mass in system                  = 4.5737856e-09
    Average linear momentum         = (7.630274857e-23 9.899584842e-25 -1.134487386e-25)
   |Average linear momentum|        = 7.630925454e-23
    Average linear kinetic energy   = 7.243224663e-20
    Average internal energy         = 4.479704882e-21
    Average total energy            = 7.691195151e-20

ExecutionTime = 0.6 s  ClockTime = 1 s

fieldAverage fieldAverage1 write:
    Calculating averages

Time = 3.8e-05

--> FOAM Warning : 
    From function void Foam::particle::locate(const vector&, Foam::label, bool, Foam::string)
    in file particle/particle.C at line 495
    Particle initialised with a location outside of the mesh.
--> FOAM Warning : 
    From function void Foam::particle::locate(const vector&, Foam::label, bool, Foam::string)
    in file particle/particle.C at line 495
    Particle initialised with a location outside of the mesh.
--> FOAM Warning : 
    From function void Foam::particle::locate(const vector&, Foam::label, bool, Foam::string)
    in file particle/particle.C at line 495
    Particle initialised with a location outside of the mesh.
--> FOAM Warning : 
    From function void Foam::particle::locate(const vector&, Foam::label, bool, Foam::string)
    in file particle/particle.C at line 495
    Particle initialised with a location outside of the mesh.
--> FOAM Warning : 
    From function void Foam::particle::locate(const vector&, Foam::label, bool, Foam::string)
    in file particle/particle.C at line 495
    Particle initialised with a location outside of the mesh.
--> FOAM Warning : 
    From function void Foam::particle::locate(const vector&, Foam::label, bool, Foam::string)
    in file particle/particle.C at line 495
    Particle initialised with a location outside of the mesh.
--> FOAM Warning : 
    From function void Foam::particle::locate(const vector&, Foam::label, bool, Foam::string)
    in file particle/particle.C at line 495
    Particle initialised with a location outside of the mesh.
--> FOAM Warning : 
    From function void Foam::particle::locate(const vector&, Foam::label, bool, Foam::string)
    in file particle/particle.C at line 495
    Particle initialised with a location outside of the mesh.
--> FOAM Warning : 
    From function void Foam::particle::locate(const vector&, Foam::label, bool, Foam::string)
    in file particle/particle.C at line 495
    Particle initialised with a location outside of the mesh.
    Particles inserted              = 75
    Collisions                      = 772
    Acceptance rate                 = 0.7366412214

Cloud name: dsmc
    Number of dsmc particles        = 18988
    Number of molecules             = 9.494e+16
    Mass in system                  = 4.5549878e-09
    Average linear momentum         = (7.584570133e-23 1.055429605e-24 -1.083672486e-25)
   |Average linear momentum|        = 7.585312179e-23
    Average linear kinetic energy   = 7.202187708e-20
    Average internal energy         = 4.496276366e-21
    Average total energy            = 7.651815344e-20

ExecutionTime = 0.62 s  ClockTime = 1 s

fieldAverage fieldAverage1 write:
    Calculating averages

Time = 4e-05

--> FOAM Warning : 
    From function void Foam::particle::locate(const vector&, Foam::label, bool, Foam::string)
    in file particle/particle.C at line 495
    Particle initialised with a location outside of the mesh.
--> FOAM Warning : 
    From function void Foam::particle::locate(const vector&, Foam::label, bool, Foam::string)
    in file particle/particle.C at line 495
    Particle initialised with a location outside of the mesh.
--> FOAM Warning : 
    From function void Foam::particle::locate(const vector&, Foam::label, bool, Foam::string)
    in file particle/particle.C at line 495
    Particle initialised with a location outside of the mesh.
--> FOAM Warning : 
    From function void Foam::particle::locate(const vector&, Foam::label, bool, Foam::string)
    in file particle/particle.C at line 495
    Particle initialised with a location outside of the mesh.
--> FOAM Warning : 
    From function void Foam::particle::locate(const vector&, Foam::label, bool, Foam::string)
    in file particle/particle.C at line 495
    Particle initialised with a location outside of the mesh.
--> FOAM Warning : 
    From function void Foam::particle::locate(const vector&, Foam::label, bool, Foam::string)
    in file particle/particle.C at line 495
    Particle initialised with a location outside of the mesh.
--> FOAM Warning : 
    From function void Foam::particle::locate(const vector&, Foam::label, bool, Foam::string)
    in file particle/particle.C at line 500
    Suppressing any further warnings about particles being located outside of the mesh.
    Particles inserted              = 68
    Collisions                      = 729
    Acceptance rate                 = 0.7341389728

Cloud name: dsmc
    Number of dsmc particles        = 18888
    Number of molecules             = 9.444e+16
    Mass in system                  = 4.5312413e-09
    Average linear momentum         = (7.545583861e-23 1.139127031e-24 -1.045248243e-25)
   |Average linear momentum|        = 7.546450899e-23
    Average linear kinetic energy   = 7.166159654e-20
    Average internal energy         = 4.531247061e-21
    Average total energy            = 7.61928436e-20

ExecutionTime = 0.63 s  ClockTime = 1 s

fieldAverage fieldAverage1 write:
    Calculating averages

Time = 4.2e-05

    Particles inserted              = 30
    Collisions                      = 765
    Acceptance rate                 = 0.7456140351

Cloud name: dsmc
    Number of dsmc particles        = 18771
    Number of molecules             = 9.3855e+16
    Mass in system                  = 4.5029796e-09
    Average linear momentum         = (7.515752446e-23 1.200240808e-24 -1.130403607e-25)
   |Average linear momentum|        = 7.516719258e-23
    Average linear kinetic energy   = 7.137868355e-20
    Average internal energy         = 4.571707201e-21
    Average total energy            = 7.595039075e-20

ExecutionTime = 0.65 s  ClockTime = 1 s

fieldAverage fieldAverage1 write:
    Calculating averages

Time = 4.4e-05

    Particles inserted              = 38
    Collisions                      = 784
    Acceptance rate                 = 0.7219152855

Cloud name: dsmc
    Number of dsmc particles        = 18647
    Number of molecules             = 9.3235e+16
    Mass in system                  = 4.4734214e-09
    Average linear momentum         = (7.479655595e-23 1.276721451e-24 -1.408378464e-25)
   |Average linear momentum|        = 7.480758408e-23
    Average linear kinetic energy   = 7.103250503e-20
    Average internal energy         = 4.602779855e-21
    Average total energy            = 7.563528488e-20

ExecutionTime = 0.66 s  ClockTime = 1 s

fieldAverage fieldAverage1 write:
    Calculating averages

Time = 4.6e-05

    Particles inserted              = 70
    Collisions                      = 735
    Acceptance rate                 = 0.7220039293

Cloud name: dsmc
    Number of dsmc particles        = 18563
    Number of molecules             = 9.2815e+16
    Mass in system                  = 4.4534942e-09
    Average linear momentum         = (7.430559216e-23 1.364532134e-24 -1.586734072e-25)
   |Average linear momentum|        = 7.431828948e-23
    Average linear kinetic energy   = 7.060503665e-20
    Average internal energy         = 4.62482449e-21
    Average total energy            = 7.522986114e-20

ExecutionTime = 0.66 s  ClockTime = 1 s

fieldAverage fieldAverage1 write:
    Calculating averages

Time = 4.8e-05

    Particles inserted              = 45
    Collisions                      = 773
    Acceptance rate                 = 0.7285579642

Cloud name: dsmc
    Number of dsmc particles        = 18461
    Number of molecules             = 9.2305e+16
    Mass in system                  = 4.42872e-09
    Average linear momentum         = (7.38657012e-23 1.455428398e-24 -1.683660143e-25)
   |Average linear momentum|        = 7.388023032e-23
    Average linear kinetic energy   = 7.02030247e-20
    Average internal energy         = 4.666775478e-21
    Average total energy            = 7.486980018e-20

ExecutionTime = 0.68 s  ClockTime = 1 s

fieldAverage fieldAverage1 write:
    Calculating averages

Time = 5e-05

    Particles inserted              = 27
    Collisions                      = 762
    Acceptance rate                 = 0.7141518276

Cloud name: dsmc
    Number of dsmc particles        = 18342
    Number of molecules             = 9.171e+16
    Mass in system                  = 4.4002912e-09
    Average linear momentum         = (7.362631356e-23 1.526798513e-24 -1.634920888e-25)
   |Average linear momentum|        = 7.364232405e-23
    Average linear kinetic energy   = 6.998219376e-20
    Average internal energy         = 4.699912254e-21
    Average total energy            = 7.468210601e-20

ExecutionTime = 0.7 s  ClockTime = 1 s

fieldAverage fieldAverage1 write:
    Calculating averages

Time = 5.2e-05

    Particles inserted              = 33
    Collisions                      = 728
    Acceptance rate                 = 0.6867924528

Cloud name: dsmc
    Number of dsmc particles        = 18211
    Number of molecules             = 9.1055e+16
    Mass in system                  = 4.3686421e-09
    Average linear momentum         = (7.328949241e-23 1.601057178e-24 -1.725474896e-25)
   |Average linear momentum|        = 7.330718146e-23
    Average linear kinetic energy   = 6.968784825e-20
    Average internal energy         = 4.745159146e-21
    Average total energy            = 7.44330074e-20

ExecutionTime = 0.71 s  ClockTime = 1 s

fieldAverage fieldAverage1 write:
    Calculating averages

Time = 5.4e-05

    Particles inserted              = 45
    Collisions                      = 753
    Acceptance rate                 = 0.7157794677

Cloud name: dsmc
    Number of dsmc particles        = 18090
    Number of molecules             = 9.045e+16
    Mass in system                  = 4.3395497e-09
    Average linear momentum         = (7.294441914e-23 1.674902238e-24 -1.632206607e-25)
   |Average linear momentum|        = 7.296382818e-23
    Average linear kinetic energy   = 6.941062276e-20
    Average internal energy         = 4.762235197e-21
    Average total energy            = 7.417285796e-20

ExecutionTime = 0.71 s  ClockTime = 1 s

fieldAverage fieldAverage1 write:
    Calculating averages

Time = 5.6e-05

    Particles inserted              = 60
    Collisions                      = 771
    Acceptance rate                 = 0.7021857923

Cloud name: dsmc
    Number of dsmc particles        = 18005
    Number of molecules             = 9.0025e+16
    Mass in system                  = 4.3187942e-09
    Average linear momentum         = (7.249582492e-23 1.78828206e-24 -1.767534007e-25)
   |Average linear momentum|        = 7.251809309e-23
    Average linear kinetic energy   = 6.905136122e-20
    Average internal energy         = 4.767350656e-21
    Average total energy            = 7.381871188e-20

ExecutionTime = 0.73 s  ClockTime = 1 s

fieldAverage fieldAverage1 write:
    Calculating averages

Time = 5.8e-05

    Particles inserted              = 30
    Collisions                      = 750
    Acceptance rate                 = 0.7029053421

Cloud name: dsmc
    Number of dsmc particles        = 17885
    Number of molecules             = 8.9425e+16
    Mass in system                  = 4.2903315e-09
    Average linear momentum         = (7.217447063e-23 1.890095852e-24 -1.764437554e-25)
   |Average linear momentum|        = 7.219943078e-23
    Average linear kinetic energy   = 6.876807836e-20
    Average internal energy         = 4.792796249e-21
    Average total energy            = 7.356087461e-20

ExecutionTime = 0.73 s  ClockTime = 1 s

fieldAverage fieldAverage1 write:
    Calculating averages

Time = 6e-05

    Particles inserted              = 18
    Collisions                      = 741
    Acceptance rate                 = 0.68866171

Cloud name: dsmc
    Number of dsmc particles        = 17745
    Number of molecules             = 8.8725e+16
    Mass in system                  = 4.2565568e-09
    Average linear momentum         = (7.189651155e-23 2.003677677e-24 -1.471609077e-25)
   |Average linear momentum|        = 7.192457684e-23
    Average linear kinetic energy   = 6.847240837e-20
    Average internal energy         = 4.835105248e-21
    Average total energy            = 7.330751361e-20

ExecutionTime = 0.74 s  ClockTime = 1 s

fieldAverage fieldAverage1 write:
    Calculating averages

Time = 6.2e-05

    Particles inserted              = 41
    Collisions                      = 769
    Acceptance rate                 = 0.712037037

Cloud name: dsmc
    Number of dsmc particles        = 17616
    Number of molecules             = 8.808e+16
    Mass in system                  = 4.2253727e-09
    Average linear momentum         = (7.162515278e-23 2.091823939e-24 -1.050335807e-25)
   |Average linear momentum|        = 7.165576927e-23
    Average linear kinetic energy   = 6.822021304e-20
    Average internal energy         = 4.861677e-21
    Average total energy            = 7.308189004e-20

ExecutionTime = 0.75 s  ClockTime = 1 s

fieldAverage fieldAverage1 write:
    Calculating averages

Time = 6.4e-05

    Particles inserted              = 70
    Collisions                      = 748
    Acceptance rate                 = 0.68

Cloud name: dsmc
    Number of dsmc particles        = 17533
    Number of molecules             = 8.7665e+16
    Mass in system                  = 4.2049167e-09
    Average linear momentum         = (7.120670195e-23 2.125021421e-24 -1.03617299e-25)
   |Average linear momentum|        = 7.123847876e-23
    Average linear kinetic energy   = 6.786048597e-20
    Average internal energy         = 4.889429113e-21
    Average total energy            = 7.274991508e-20

ExecutionTime = 0.77 s  ClockTime = 1 s

fieldAverage fieldAverage1 write:
    Calculating averages

Time = 6.6e-05

    Particles inserted              = 53
    Collisions                      = 767
    Acceptance rate                 = 0.6953762466

Cloud name: dsmc
    Number of dsmc particles        = 17413
    Number of molecules             = 8.7065e+16
    Mass in system                  = 4.1762554e-09
    Average linear momentum         = (7.085956973e-23 2.202848709e-24 -9.910880822e-26)
   |Average linear momentum|        = 7.08938713e-23
    Average linear kinetic energy   = 6.749466837e-20
    Average internal energy         = 4.938546806e-21
    Average total energy            = 7.243321517e-20

ExecutionTime = 0.77 s  ClockTime = 1 s

fieldAverage fieldAverage1 write:
    Calculating averages

Time = 6.8e-05

    Particles inserted              = 35
    Collisions                      = 777
    Acceptance rate                 = 0.7031674208

Cloud name: dsmc
    Number of dsmc particles        = 17287
    Number of molecules             = 8.6435e+16
    Mass in system                  = 4.1466625e-09
    Average linear momentum         = (7.054514485e-23 2.267834925e-24 -7.930891925e-26)
   |Average linear momentum|        = 7.058163236e-23
    Average linear kinetic energy   = 6.719015881e-20
    Average internal energy         = 4.960305326e-21
    Average total energy            = 7.215046414e-20

ExecutionTime = 0.78 s  ClockTime = 1 s

fieldAverage fieldAverage1 write:
    Calculating averages

Time = 7e-05

    Particles inserted              = 51
    Collisions                      = 724
    Acceptance rate                 = 0.6895238095

Cloud name: dsmc
    Number of dsmc particles        = 17214
    Number of molecules             = 8.607e+16
    Mass in system                  = 4.1294914e-09
    Average linear momentum         = (7.015154257e-23 2.3832273e-24 -8.315923454e-26)
   |Average linear momentum|        = 7.019206232e-23
    Average linear kinetic energy   = 6.681856564e-20
    Average internal energy         = 5.003298012e-21
    Average total energy            = 7.182186365e-20

ExecutionTime = 0.8 s  ClockTime = 1 s

fieldAverage fieldAverage1 write:
    Calculating averages

Time = 7.2e-05

    Particles inserted              = 61
    Collisions                      = 766
    Acceptance rate                 = 0.6821015138

Cloud name: dsmc
    Number of dsmc particles        = 17132
    Number of molecules             = 8.566e+16
    Mass in system                  = 4.1097644e-09
    Average linear momentum         = (6.977942874e-23 2.447215156e-24 -7.856785889e-26)
   |Average linear momentum|        = 6.982237257e-23
    Average linear kinetic energy   = 6.6484738e-20
    Average internal energy         = 5.025844365e-21
    Average total energy            = 7.151058237e-20

ExecutionTime = 0.8 s  ClockTime = 1 s

fieldAverage fieldAverage1 write:
    Calculating averages

Time = 7.4e-05

    Particles inserted              = 67
    Collisions                      = 770
    Acceptance rate                 = 0.6796116505

Cloud name: dsmc
    Number of dsmc particles        = 17037
    Number of molecules             = 8.5185e+16
    Mass in system                  = 4.0871473e-09
    Average linear momentum         = (6.925377859e-23 2.542707064e-24 -8.158681463e-26)
   |Average linear momentum|        = 6.930048964e-23
    Average linear kinetic energy   = 6.598807311e-20
    Average internal energy         = 5.091632478e-21
    Average total energy            = 7.107970559e-20

ExecutionTime = 0.82 s  ClockTime = 1 s

fieldAverage fieldAverage1 write:
    Calculating averages

Time = 7.6e-05

    Particles inserted              = 27
    Collisions                      = 742
    Acceptance rate                 = 0.6826126955

Cloud name: dsmc
    Number of dsmc particles        = 16909
    Number of molecules             = 8.4545e+16
    Mass in system                  = 4.0565267e-09
    Average linear momentum         = (6.895191401e-23 2.626844979e-24 -8.828807669e-26)
   |Average linear momentum|        = 6.90019895e-23
    Average linear kinetic energy   = 6.568048393e-20
    Average internal energy         = 5.127504859e-21
    Average total energy            = 7.080798879e-20

ExecutionTime = 0.83 s  ClockTime = 1 s

fieldAverage fieldAverage1 write:
    Calculating averages

Time = 7.8e-05

    Particles inserted              = 50
    Collisions                      = 772
    Acceptance rate                 = 0.6905187835

Cloud name: dsmc
    Number of dsmc particles        = 16804
    Number of molecules             = 8.402e+16
    Mass in system                  = 4.0308895e-09
    Average linear momentum         = (6.856808655e-23 2.700701916e-24 -9.182025113e-26)
   |Average linear momentum|        = 6.862131385e-23
    Average linear kinetic energy   = 6.532511268e-20
    Average internal energy         = 5.174453193e-21
    Average total energy            = 7.049956587e-20

ExecutionTime = 0.85 s  ClockTime = 1 s

fieldAverage fieldAverage1 write:
    Calculating averages

Time = 8e-05

    Particles inserted              = 62
    Collisions                      = 730
    Acceptance rate                 = 0.6797020484

Cloud name: dsmc
    Number of dsmc particles        = 16706
    Number of molecules             = 8.353e+16
    Mass in system                  = 4.0070784e-09
    Average linear momentum         = (6.813038425e-23 2.773588468e-24 -6.817138156e-26)
   |Average linear momentum|        = 6.818685136e-23
    Average linear kinetic energy   = 6.489384401e-20
    Average internal energy         = 5.224534339e-21
    Average total energy            = 7.011837835e-20

ExecutionTime = 0.85 s  ClockTime = 1 s

fieldAverage fieldAverage1 write:
    Calculating averages

Time = 8.2e-05

    Particles inserted              = 30
    Collisions                      = 748
    Acceptance rate                 = 0.6775362319

Cloud name: dsmc
    Number of dsmc particles        = 16569
    Number of molecules             = 8.2845e+16
    Mass in system                  = 3.9740343e-09
    Average linear momentum         = (6.778616219e-23 2.856621541e-24 -5.41773393e-26)
   |Average linear momentum|        = 6.784634851e-23
    Average linear kinetic energy   = 6.455268524e-20
    Average internal energy         = 5.271087764e-21
    Average total energy            = 6.982377301e-20

ExecutionTime = 0.86 s  ClockTime = 1 s

fieldAverage fieldAverage1 write:
    Calculating averages

Time = 8.4e-05

    Particles inserted              = 15
    Collisions                      = 743
    Acceptance rate                 = 0.6822773186

Cloud name: dsmc
    Number of dsmc particles        = 16430
    Number of molecules             = 8.215e+16
    Mass in system                  = 3.9405583e-09
    Average linear momentum         = (6.751815691e-23 2.960467478e-24 -4.471950617e-26)
   |Average linear momentum|        = 6.758304432e-23
    Average linear kinetic energy   = 6.430463911e-20
    Average internal energy         = 5.294643701e-21
    Average total energy            = 6.959928281e-20

ExecutionTime = 0.86 s  ClockTime = 1 s

fieldAverage fieldAverage1 write:
    Calculating averages

Time = 8.6e-05

    Particles inserted              = 29
    Collisions                      = 747
    Acceptance rate                 = 0.6884792627

Cloud name: dsmc
    Number of dsmc particles        = 16323
    Number of molecules             = 8.1615e+16
    Mass in system                  = 3.9147871e-09
    Average linear momentum         = (6.71504478e-23 3.105639228e-24 -3.018637543e-26)
   |Average linear momentum|        = 6.722223253e-23
    Average linear kinetic energy   = 6.396519047e-20
    Average internal energy         = 5.317562012e-21
    Average total energy            = 6.928275248e-20

ExecutionTime = 0.88 s  ClockTime = 1 s

fieldAverage fieldAverage1 write:
    Calculating averages

Time = 8.8e-05

    Particles inserted              = 49
    Collisions                      = 756
    Acceptance rate                 = 0.675

Cloud name: dsmc
    Number of dsmc particles        = 16209
    Number of molecules             = 8.1045e+16
    Mass in system                  = 3.8871236e-09
    Average linear momentum         = (6.678619824e-23 3.149290688e-24 -3.622616636e-26)
   |Average linear momentum|        = 6.686041893e-23
    Average linear kinetic energy   = 6.361848969e-20
    Average internal energy         = 5.347373946e-21
    Average total energy            = 6.896586363e-20

ExecutionTime = 0.88 s  ClockTime = 1 s

fieldAverage fieldAverage1 write:
    Calculating averages

Time = 9e-05

    Particles inserted              = 52
    Collisions                      = 737
    Acceptance rate                 = 0.6633663366

Cloud name: dsmc
    Number of dsmc particles        = 16115
    Number of molecules             = 8.0575e+16
    Mass in system                  = 3.8643418e-09
    Average linear momentum         = (6.638624322e-23 3.266413346e-24 -1.736744849e-26)
   |Average linear momentum|        = 6.646655585e-23
    Average linear kinetic energy   = 6.32611767e-20
    Average internal energy         = 5.366859547e-21
    Average total energy            = 6.862803625e-20

ExecutionTime = 0.89 s  ClockTime = 1 s

fieldAverage fieldAverage1 write:
    Calculating averages

Time = 9.2e-05

    Particles inserted              = 32
    Collisions                      = 730
    Acceptance rate                 = 0.6822429907

Cloud name: dsmc
    Number of dsmc particles        = 15979
    Number of molecules             = 7.9895e+16
    Mass in system                  = 3.8319274e-09
    Average linear momentum         = (6.610435414e-23 3.293441521e-24 -2.39266837e-26)
   |Average linear momentum|        = 6.61863503e-23
    Average linear kinetic energy   = 6.298945016e-20
    Average internal energy         = 5.426940544e-21
    Average total energy            = 6.84163907e-20

ExecutionTime = 0.91 s  ClockTime = 1 s

fieldAverage fieldAverage1 write:
    Calculating averages

Time = 9.4e-05

    Particles inserted              = 15
    Collisions                      = 758
    Acceptance rate                 = 0.6903460838

Cloud name: dsmc
    Number of dsmc particles        = 15834
    Number of molecules             = 7.917e+16
    Mass in system                  = 3.7968909e-09
    Average linear momentum         = (6.589970612e-23 3.417399339e-24 -5.080251144e-26)
   |Average linear momentum|        = 6.598827521e-23
    Average linear kinetic energy   = 6.281686963e-20
    Average internal energy         = 5.464583008e-21
    Average total energy            = 6.828145264e-20

ExecutionTime = 0.91 s  ClockTime = 1 s

fieldAverage fieldAverage1 write:
    Calculating averages

Time = 9.6e-05

    Particles inserted              = 48
    Collisions                      = 733
    Acceptance rate                 = 0.6774491682

Cloud name: dsmc
    Number of dsmc particles        = 15743
    Number of molecules             = 7.8715e+16
    Mass in system                  = 3.774939e-09
    Average linear momentum         = (6.554644876e-23 3.460529422e-24 -6.132421811e-26)
   |Average linear momentum|        = 6.563776329e-23
    Average linear kinetic energy   = 6.247246774e-20
    Average internal energy         = 5.492346668e-21
    Average total energy            = 6.79648144e-20

ExecutionTime = 0.92 s  ClockTime = 1 s

fieldAverage fieldAverage1 write:
    Calculating averages

Time = 9.8e-05

    Particles inserted              = 78
    Collisions                      = 715
    Acceptance rate                 = 0.6406810036

Cloud name: dsmc
    Number of dsmc particles        = 15648
    Number of molecules             = 7.824e+16
    Mass in system                  = 3.7524212e-09
    Average linear momentum         = (6.503155295e-23 3.469975346e-24 -4.096782549e-26)
   |Average linear momentum|        = 6.512407609e-23
    Average linear kinetic energy   = 6.198279165e-20
    Average internal energy         = 5.515717478e-21
    Average total energy            = 6.749850913e-20

ExecutionTime = 0.92 s  ClockTime = 1 s

fieldAverage fieldAverage1 write:
    Calculating averages

Time = 0.0001

    Particles inserted              = 60
    Collisions                      = 690
    Acceptance rate                 = 0.6628242075

Cloud name: dsmc
    Number of dsmc particles        = 15550
    Number of molecules             = 7.775e+16
    Mass in system                  = 3.7291728e-09
    Average linear momentum         = (6.457249034e-23 3.539341693e-24 -3.279304857e-26)
   |Average linear momentum|        = 6.466942495e-23
    Average linear kinetic energy   = 6.154271112e-20
    Average internal energy         = 5.57569319e-21
    Average total energy            = 6.711840431e-20

ExecutionTime = 0.94 s  ClockTime = 1 s

fieldAverage fieldAverage1 write:
    Calculating averages

Time = 0.000102

    Particles inserted              = 43
    Collisions                      = 783
    Acceptance rate                 = 0.6978609626

Cloud name: dsmc
    Number of dsmc particles        = 15435
    Number of molecules             = 7.7175e+16
    Mass in system                  = 3.7018395e-09
    Average linear momentum         = (6.417499184e-23 3.59649747e-24 -1.815271633e-26)
   |Average linear momentum|        = 6.427569293e-23
    Average linear kinetic energy   = 6.117000363e-20
    Average internal energy         = 5.614894952e-21
    Average total energy            = 6.678489858e-20

ExecutionTime = 0.94 s  ClockTime = 1 s

fieldAverage fieldAverage1 write:
    Calculating averages

Time = 0.000104

    Particles inserted              = 57
    Collisions                      = 731
    Acceptance rate                 = 0.6737327189

Cloud name: dsmc
    Number of dsmc particles        = 15349
    Number of molecules             = 7.6745e+16
    Mass in system                  = 3.6815135e-09
    Average linear momentum         = (6.373409652e-23 3.636625854e-24 3.191692794e-27)
   |Average linear momentum|        = 6.383776403e-23
    Average linear kinetic energy   = 6.075206532e-20
    Average internal energy         = 5.651968561e-21
    Average total energy            = 6.640403388e-20

ExecutionTime = 0.96 s  ClockTime = 1 s

fieldAverage fieldAverage1 write:
    Calculating averages

Time = 0.000106

    Particles inserted              = 58
    Collisions                      = 726
    Acceptance rate                 = 0.6734693878

Cloud name: dsmc
    Number of dsmc particles        = 15254
    Number of molecules             = 7.627e+16
    Mass in system                  = 3.6586647e-09
    Average linear momentum         = (6.329334834e-23 3.698218106e-24 1.298811897e-26)
   |Average linear momentum|        = 6.34013007e-23
    Average linear kinetic energy   = 6.033749817e-20
    Average internal energy         = 5.65856704e-21
    Average total energy            = 6.599606521e-20

ExecutionTime = 0.96 s  ClockTime = 1 s

fieldAverage fieldAverage1 write:
    Calculating averages

Time = 0.000108

    Particles inserted              = 58
    Collisions                      = 714
    Acceptance rate                 = 0.6568537259

Cloud name: dsmc
    Number of dsmc particles        = 15162
    Number of molecules             = 7.581e+16
    Mass in system                  = 3.6369106e-09
    Average linear momentum         = (6.28527499e-23 3.741824529e-24 -1.723357214e-26)
   |Average linear momentum|        = 6.296403512e-23
    Average linear kinetic energy   = 5.988473608e-20
    Average internal energy         = 5.697255602e-21
    Average total energy            = 6.558199168e-20

ExecutionTime = 0.97 s  ClockTime = 1 s

fieldAverage fieldAverage1 write:
    Calculating averages

Time = 0.00011

    Particles inserted              = 29
    Collisions                      = 733
    Acceptance rate                 = 0.6712454212

Cloud name: dsmc
    Number of dsmc particles        = 15060
    Number of molecules             = 7.53e+16
    Mass in system                  = 3.612666e-09
    Average linear momentum         = (6.246138516e-23 3.901661892e-24 -4.901145175e-28)
   |Average linear momentum|        = 6.258312554e-23
    Average linear kinetic energy   = 5.953786553e-20
    Average internal energy         = 5.72841933e-21
    Average total energy            = 6.526628486e-20

ExecutionTime = 0.99 s  ClockTime = 1 s

fieldAverage fieldAverage1 write:
    Calculating averages

Time = 0.000112

    Particles inserted              = 30
    Collisions                      = 649
    Acceptance rate                 = 0.616334283

Cloud name: dsmc
    Number of dsmc particles        = 14926
    Number of molecules             = 7.463e+16
    Mass in system                  = 3.5804849e-09
    Average linear momentum         = (6.214554646e-23 3.998131081e-24 1.802671274e-26)
   |Average linear momentum|        = 6.227402606e-23
    Average linear kinetic energy   = 5.926301176e-20
    Average internal energy         = 5.75193713e-21
    Average total energy            = 6.501494889e-20

ExecutionTime = 0.99 s  ClockTime = 1 s

fieldAverage fieldAverage1 write:
    Calculating averages

Time = 0.000114

    Particles inserted              = 54
    Collisions                      = 703
    Acceptance rate                 = 0.6473296501

Cloud name: dsmc
    Number of dsmc particles        = 14823
    Number of molecules             = 7.4115e+16
    Mass in system                  = 3.5555775e-09
    Average linear momentum         = (6.169963784e-23 4.089709498e-24 1.846606157e-26)
   |Average linear momentum|        = 6.183503355e-23
    Average linear kinetic energy   = 5.886040126e-20
    Average internal energy         = 5.780944896e-21
    Average total energy            = 6.464134616e-20

ExecutionTime = 1 s  ClockTime = 1 s

fieldAverage fieldAverage1 write:
    Calculating averages

Time = 0.000116

    Particles inserted              = 40
    Collisions                      = 703
    Acceptance rate                 = 0.6600938967

Cloud name: dsmc
    Number of dsmc particles        = 14713
    Number of molecules             = 7.3565e+16
    Mass in system                  = 3.5288109e-09
    Average linear momentum         = (6.131848048e-23 4.177077704e-24 1.303493217e-26)
   |Average linear momentum|        = 6.146059059e-23
    Average linear kinetic energy   = 5.847526735e-20
    Average internal energy         = 5.805110817e-21
    Average total energy            = 6.428037816e-20

ExecutionTime = 1 s  ClockTime = 2 s

fieldAverage fieldAverage1 write:
    Calculating averages

Time = 0.000118

    Particles inserted              = 21
    Collisions                      = 724
    Acceptance rate                 = 0.6516651665

Cloud name: dsmc
    Number of dsmc particles        = 14578
    Number of molecules             = 7.289e+16
    Mass in system                  = 3.4964304e-09
    Average linear momentum         = (6.105663509e-23 4.248604125e-24 1.74160062e-26)
   |Average linear momentum|        = 6.120427786e-23
    Average linear kinetic energy   = 5.820751667e-20
    Average internal energy         = 5.840507043e-21
    Average total energy            = 6.404802371e-20

ExecutionTime = 1.02 s  ClockTime = 2 s

fieldAverage fieldAverage1 write:
    Calculating averages

Time = 0.00012

    Particles inserted              = 31
    Collisions                      = 676
    Acceptance rate                 = 0.6493756004

Cloud name: dsmc
    Number of dsmc particles        = 14429
    Number of molecules             = 7.2145e+16
    Mass in system                  = 3.4606625e-09
    Average linear momentum         = (6.072620842e-23 4.322978935e-24 -1.892248058e-27)
   |Average linear momentum|        = 6.087988617e-23
    Average linear kinetic energy   = 5.785543768e-20
    Average internal energy         = 5.889913633e-21
    Average total energy            = 6.374535131e-20

ExecutionTime = 1.03 s  ClockTime = 2 s

fieldAverage fieldAverage1 write:
    Calculating averages

Time = 0.000122

    Particles inserted              = 50
    Collisions                      = 659
    Acceptance rate                 = 0.6486220472

Cloud name: dsmc
    Number of dsmc particles        = 14324
    Number of molecules             = 7.162e+16
    Mass in system                  = 3.4350253e-09
    Average linear momentum         = (6.030609128e-23 4.377020823e-24 -2.365555497e-26)
   |Average linear momentum|        = 6.046472952e-23
    Average linear kinetic energy   = 5.74975154e-20
    Average internal energy         = 5.90722684e-21
    Average total energy            = 6.340474224e-20

ExecutionTime = 1.03 s  ClockTime = 2 s

fieldAverage fieldAverage1 write:
    Calculating averages

Time = 0.000124

    Particles inserted              = 52
    Collisions                      = 695
    Acceptance rate                 = 0.6544256121

Cloud name: dsmc
    Number of dsmc particles        = 14222
    Number of molecules             = 7.111e+16
    Mass in system                  = 3.4100194e-09
    Average linear momentum         = (5.988046459e-23 4.475887716e-24 5.196750632e-27)
   |Average linear momentum|        = 6.00475115e-23
    Average linear kinetic energy   = 5.710189273e-20
    Average internal energy         = 5.937120626e-21
    Average total energy            = 6.303901336e-20

ExecutionTime = 1.05 s  ClockTime = 2 s

fieldAverage fieldAverage1 write:
    Calculating averages

Time = 0.000126

    Particles inserted              = 25
    Collisions                      = 682
    Acceptance rate                 = 0.6433962264

Cloud name: dsmc
    Number of dsmc particles        = 14108
    Number of molecules             = 7.054e+16
    Mass in system                  = 3.3824883e-09
    Average linear momentum         = (5.955008876e-23 4.544465169e-24 -2.124571278e-26)
   |Average linear momentum|        = 5.972324243e-23
    Average linear kinetic energy   = 5.681126313e-20
    Average internal energy         = 5.963586739e-21
    Average total energy            = 6.277484987e-20

ExecutionTime = 1.05 s  ClockTime = 2 s

fieldAverage fieldAverage1 write:
    Calculating averages

Time = 0.000128

    Particles inserted              = 27
    Collisions                      = 675
    Acceptance rate                 = 0.6578947368

Cloud name: dsmc
    Number of dsmc particles        = 13998
    Number of molecules             = 6.999e+16
    Mass in system                  = 3.3562844e-09
    Average linear momentum         = (5.915497868e-23 4.635708575e-24 -5.647097597e-26)
   |Average linear momentum|        = 5.933636731e-23
    Average linear kinetic energy   = 5.646530164e-20
    Average internal energy         = 5.988317929e-21
    Average total energy            = 6.245361957e-20

ExecutionTime = 1.07 s  ClockTime = 2 s

fieldAverage fieldAverage1 write:
    Calculating averages

Time = 0.00013

    Particles inserted              = 59
    Collisions                      = 643
    Acceptance rate                 = 0.6159003831

Cloud name: dsmc
    Number of dsmc particles        = 13903
    Number of molecules             = 6.9515e+16
    Mass in system                  = 3.3338328e-09
    Average linear momentum         = (5.865514348e-23 4.73899258e-24 -3.861045251e-26)
   |Average linear momentum|        = 5.884628619e-23
    Average linear kinetic energy   = 5.600669414e-20
    Average internal energy         = 5.999016967e-21
    Average total energy            = 6.200571111e-20

ExecutionTime = 1.07 s  ClockTime = 2 s

fieldAverage fieldAverage1 write:
    Calculating averages

Time = 0.000132

    Particles inserted              = 60
    Collisions                      = 657
    Acceptance rate                 = 0.6543824701

Cloud name: dsmc
    Number of dsmc particles        = 13823
    Number of molecules             = 6.9115e+16
    Mass in system                  = 3.3150011e-09
    Average linear momentum         = (5.814789195e-23 4.796601014e-24 -5.116766135e-26)
   |Average linear momentum|        = 5.834541402e-23
    Average linear kinetic energy   = 5.552087165e-20
    Average internal energy         = 6.02055026e-21
    Average total energy            = 6.154142191e-20

ExecutionTime = 1.07 s  ClockTime = 2 s

fieldAverage fieldAverage1 write:
    Calculating averages

Time = 0.000134

    Particles inserted              = 60
    Collisions                      = 657
    Acceptance rate                 = 0.6347826087

Cloud name: dsmc
    Number of dsmc particles        = 13734
    Number of molecules             = 6.867e+16
    Mass in system                  = 3.2943417e-09
    Average linear momentum         = (5.766738999e-23 4.816620705e-24 -1.373001775e-26)
   |Average linear momentum|        = 5.786819413e-23
    Average linear kinetic energy   = 5.508981665e-20
    Average internal energy         = 6.032356812e-21
    Average total energy            = 6.112217346e-20

ExecutionTime = 1.08 s  ClockTime = 2 s

fieldAverage fieldAverage1 write:
    Calculating averages

Time = 0.000136

    Particles inserted              = 44
    Collisions                      = 625
    Acceptance rate                 = 0.6231306082

Cloud name: dsmc
    Number of dsmc particles        = 13629
    Number of molecules             = 6.8145e+16
    Mass in system                  = 3.2694658e-09
    Average linear momentum         = (5.723506354e-23 4.856787074e-24 -2.453226526e-26)
   |Average linear momentum|        = 5.744076497e-23
    Average linear kinetic energy   = 5.465164775e-20
    Average internal energy         = 6.069966879e-21
    Average total energy            = 6.072161463e-20

ExecutionTime = 1.08 s  ClockTime = 2 s

fieldAverage fieldAverage1 write:
    Calculating averages

Time = 0.000138

    Particles inserted              = 50
    Collisions                      = 648
    Acceptance rate                 = 0.6422200198

Cloud name: dsmc
    Number of dsmc particles        = 13522
    Number of molecules             = 6.761e+16
    Mass in system                  = 3.2442904e-09
    Average linear momentum         = (5.672296626e-23 4.962440738e-24 -3.800695329e-26)
   |Average linear momentum|        = 5.693963614e-23
    Average linear kinetic energy   = 5.416334814e-20
    Average internal energy         = 6.098493715e-21
    Average total energy            = 6.026184186e-20

ExecutionTime = 1.1 s  ClockTime = 2 s

fieldAverage fieldAverage1 write:
    Calculating averages

Time = 0.00014

    Particles inserted              = 64
    Collisions                      = 592
    Acceptance rate                 = 0.6078028747

Cloud name: dsmc
    Number of dsmc particles        = 13417
    Number of molecules             = 6.7085e+16
    Mass in system                  = 3.2191828e-09
    Average linear momentum         = (5.618060635e-23 4.990936279e-24 -1.983789279e-26)
   |Average linear momentum|        = 5.640186494e-23
    Average linear kinetic energy   = 5.365784858e-20
    Average internal energy         = 6.092658867e-21
    Average total energy            = 5.975050745e-20

ExecutionTime = 1.1 s  ClockTime = 2 s

fieldAverage fieldAverage1 write:
    Calculating averages

Time = 0.000142

    Particles inserted              = 43
    Collisions                      = 671
    Acceptance rate                 = 0.678463094

Cloud name: dsmc
    Number of dsmc particles        = 13315
    Number of molecules             = 6.6575e+16
    Mass in system                  = 3.1948389e-09
    Average linear momentum         = (5.569930495e-23 5.060802866e-24 -1.255839388e-26)
   |Average linear momentum|        = 5.592874445e-23
    Average linear kinetic energy   = 5.319577078e-20
    Average internal energy         = 6.096317825e-21
    Average total energy            = 5.92920886e-20

ExecutionTime = 1.11 s  ClockTime = 2 s

fieldAverage fieldAverage1 write:
    Calculating averages

Time = 0.000144

    Particles inserted              = 31
    Collisions                      = 636
    Acceptance rate                 = 0.6417759839

Cloud name: dsmc
    Number of dsmc particles        = 13186
    Number of molecules             = 6.593e+16
    Mass in system                  = 3.1638865e-09
    Average linear momentum         = (5.532104763e-23 5.107144639e-24 6.167173811e-28)
   |Average linear momentum|        = 5.555628891e-23
    Average linear kinetic energy   = 5.282656537e-20
    Average internal energy         = 6.106476515e-21
    Average total energy            = 5.893304188e-20

ExecutionTime = 1.11 s  ClockTime = 2 s

fieldAverage fieldAverage1 write:
    Calculating averages

Time = 0.000146

    Particles inserted              = 48
    Collisions                      = 618
    Acceptance rate                 = 0.6397515528

Cloud name: dsmc
    Number of dsmc particles        = 13071
    Number of molecules             = 6.5355e+16
    Mass in system                  = 3.1364539e-09
    Average linear momentum         = (5.485304178e-23 5.156585586e-24 4.678220376e-27)
   |Average linear momentum|        = 5.509488715e-23
    Average linear kinetic energy   = 5.238281969e-20
    Average internal energy         = 6.124179853e-21
    Average total energy            = 5.850699954e-20

ExecutionTime = 1.13 s  ClockTime = 2 s

fieldAverage fieldAverage1 write:
    Calculating averages

Time = 0.000148

    Particles inserted              = 52
    Collisions                      = 584
    Acceptance rate                 = 0.6128016789

Cloud name: dsmc
    Number of dsmc particles        = 12962
    Number of molecules             = 6.481e+16
    Mass in system                  = 3.1101846e-09
    Average linear momentum         = (5.434907969e-23 5.170641674e-24 3.678346604e-27)
   |Average linear momentum|        = 5.459448701e-23
    Average linear kinetic energy   = 5.191144944e-20
    Average internal energy         = 6.168683286e-21
    Average total energy            = 5.808013272e-20

ExecutionTime = 1.14 s  ClockTime = 2 s

fieldAverage fieldAverage1 write:
    Calculating averages

Time = 0.00015

    Particles inserted              = 49
    Collisions                      = 626
    Acceptance rate                 = 0.6603375527

Cloud name: dsmc
    Number of dsmc particles        = 12857
    Number of molecules             = 6.4285e+16
    Mass in system                  = 3.0845143e-09
    Average linear momentum         = (5.380247143e-23 5.229616479e-24 -1.029940619e-26)
   |Average linear momentum|        = 5.405603506e-23
    Average linear kinetic energy   = 5.138567089e-20
    Average internal energy         = 6.156618696e-21
    Average total energy            = 5.754228958e-20

ExecutionTime = 1.14 s  ClockTime = 2 s

fieldAverage fieldAverage1 write:
    Calculating averages

Time = 0.000152

    Particles inserted              = 19
    Collisions                      = 592
    Acceptance rate                 = 0.6345123258

Cloud name: dsmc
    Number of dsmc particles        = 12713
    Number of molecules             = 6.3565e+16
    Mass in system                  = 3.0498758e-09
    Average linear momentum         = (5.337491336e-23 5.333114662e-24 7.439392202e-27)
   |Average linear momentum|        = 5.364068925e-23
    Average linear kinetic energy   = 5.09356932e-20
    Average internal energy         = 6.222511831e-21
    Average total energy            = 5.715820503e-20

ExecutionTime = 1.16 s  ClockTime = 2 s

fieldAverage fieldAverage1 write:
    Calculating averages

Time = 0.000154

    Particles inserted              = 21
    Collisions                      = 611
    Acceptance rate                 = 0.6351351351

Cloud name: dsmc
    Number of dsmc particles        = 12592
    Number of molecules             = 6.296e+16
    Mass in system                  = 3.0208827e-09
    Average linear momentum         = (5.300133865e-23 5.381964902e-24 4.655324314e-26)
   |Average linear momentum|        = 5.327391118e-23
    Average linear kinetic energy   = 5.056249234e-20
    Average internal energy         = 6.235943727e-21
    Average total energy            = 5.679843607e-20

ExecutionTime = 1.17 s  ClockTime = 2 s

[...]
   |Average linear momentum|        = 2.637933919e-25
    Average linear kinetic energy   = 7.41516795e-21
    Average internal energy         = 4.953808779e-21
    Average total energy            = 1.236897673e-20

ExecutionTime = 37.65 s  ClockTime = 39 s

fieldAverage fieldAverage1 write:
    Calculating averages

Time = 0.00995

    Particles inserted              = 47
    Collisions                      = 580
    Acceptance rate                 = 0.5365402405

Cloud name: dsmc
    Number of dsmc particles        = 18160
    Number of molecules             = 9.08e+16
    Mass in system                  = 4.3570494e-09
    Average linear momentum         = (-1.003156857e-25 2.268807492e-25 6.765086079e-26)
   |Average linear momentum|        = 2.571278867e-25
    Average linear kinetic energy   = 7.415784399e-21
    Average internal energy         = 4.954011877e-21
    Average total energy            = 1.236979628e-20

ExecutionTime = 37.65 s  ClockTime = 39 s

fieldAverage fieldAverage1 write:
    Calculating averages

Time = 0.009952

    Particles inserted              = 35
    Collisions                      = 566
    Acceptance rate                 = 0.5468599034

Cloud name: dsmc
    Number of dsmc particles        = 18143
    Number of molecules             = 9.0715e+16
    Mass in system                  = 4.3528983e-09
    Average linear momentum         = (-1.084069974e-25 2.294308941e-25 5.476297242e-26)
   |Average linear momentum|        = 2.595950604e-25
    Average linear kinetic energy   = 7.408110053e-21
    Average internal energy         = 4.95394376e-21
    Average total energy            = 1.236205381e-20

ExecutionTime = 37.67 s  ClockTime = 39 s

fieldAverage fieldAverage1 write:
    Calculating averages

Time = 0.009954

    Particles inserted              = 28
    Collisions                      = 616
    Acceptance rate                 = 0.5861084681

Cloud name: dsmc
    Number of dsmc particles        = 18124
    Number of molecules             = 9.062e+16
    Mass in system                  = 4.3483484e-09
    Average linear momentum         = (-1.092646899e-25 2.253728153e-25 6.844803021e-26)
   |Average linear momentum|        = 2.596474748e-25
    Average linear kinetic energy   = 7.4136811e-21
    Average internal energy         = 4.953928451e-21
    Average total energy            = 1.236760955e-20

ExecutionTime = 37.67 s  ClockTime = 39 s

fieldAverage fieldAverage1 write:
    Calculating averages

Time = 0.009956

    Particles inserted              = 31
    Collisions                      = 577
    Acceptance rate                 = 0.5629268293

Cloud name: dsmc
    Number of dsmc particles        = 18109
    Number of molecules             = 9.0545e+16
    Mass in system                  = 4.3447285e-09
    Average linear momentum         = (-1.028830973e-25 2.429788852e-25 7.658569283e-26)
   |Average linear momentum|        = 2.747526864e-25
    Average linear kinetic energy   = 7.407939231e-21
    Average internal energy         = 4.956400471e-21
    Average total energy            = 1.23643397e-20

ExecutionTime = 37.68 s  ClockTime = 39 s

fieldAverage fieldAverage1 write:
    Calculating averages

Time = 0.009958

    Particles inserted              = 55
    Collisions                      = 543
    Acceptance rate                 = 0.5333988212

Cloud name: dsmc
    Number of dsmc particles        = 18109
    Number of molecules             = 9.0545e+16
    Mass in system                  = 4.3444306e-09
    Average linear momentum         = (-7.895916959e-26 2.390318372e-25 9.413179103e-26)
   |Average linear momentum|        = 2.687593045e-25
    Average linear kinetic energy   = 7.403316938e-21
    Average internal energy         = 4.960555722e-21
    Average total energy            = 1.236387266e-20

ExecutionTime = 37.68 s  ClockTime = 39 s

fieldAverage fieldAverage1 write:
    Calculating averages

Time = 0.00996

    Particles inserted              = 43
    Collisions                      = 597
    Acceptance rate                 = 0.5642722117

Cloud name: dsmc
    Number of dsmc particles        = 18114
    Number of molecules             = 9.057e+16
    Mass in system                  = 4.3455269e-09
    Average linear momentum         = (-8.083300418e-26 2.448761421e-25 7.713369768e-26)
   |Average linear momentum|        = 2.691614884e-25
    Average linear kinetic energy   = 7.39871912e-21
    Average internal energy         = 4.95940246e-21
    Average total energy            = 1.235812158e-20

ExecutionTime = 37.7 s  ClockTime = 39 s

fieldAverage fieldAverage1 write:
    Calculating averages

Time = 0.009962

    Particles inserted              = 33
    Collisions                      = 547
    Acceptance rate                 = 0.5373280943

Cloud name: dsmc
    Number of dsmc particles        = 18121
    Number of molecules             = 9.0605e+16
    Mass in system                  = 4.3470882e-09
    Average linear momentum         = (-8.485979061e-26 2.517740258e-25 7.44020689e-26)
   |Average linear momentum|        = 2.759112393e-25
    Average linear kinetic energy   = 7.402913801e-21
    Average internal energy         = 4.956260374e-21
    Average total energy            = 1.235917418e-20

ExecutionTime = 37.7 s  ClockTime = 39 s

fieldAverage fieldAverage1 write:
    Calculating averages

Time = 0.009964

    Particles inserted              = 35
    Collisions                      = 585
    Acceptance rate                 = 0.5566127498

Cloud name: dsmc
    Number of dsmc particles        = 18111
    Number of molecules             = 9.0555e+16
    Mass in system                  = 4.3447301e-09
    Average linear momentum         = (-7.330017926e-26 2.523291296e-25 7.126799919e-26)
   |Average linear momentum|        = 2.7225362e-25
    Average linear kinetic energy   = 7.410499892e-21
    Average internal energy         = 4.94824509e-21
    Average total energy            = 1.235874498e-20

ExecutionTime = 37.71 s  ClockTime = 39 s

fieldAverage fieldAverage1 write:
    Calculating averages

Time = 0.009966

    Particles inserted              = 48
    Collisions                      = 569
    Acceptance rate                 = 0.5444976077

Cloud name: dsmc
    Number of dsmc particles        = 18122
    Number of molecules             = 9.061e+16
    Mass in system                  = 4.3470228e-09
    Average linear momentum         = (-8.507625507e-26 2.388348339e-25 7.633367528e-26)
   |Average linear momentum|        = 2.647770327e-25
    Average linear kinetic energy   = 7.413034898e-21
    Average internal energy         = 4.936146655e-21
    Average total energy            = 1.234918155e-20

ExecutionTime = 37.71 s  ClockTime = 39 s

fieldAverage fieldAverage1 write:
    Calculating averages

Time = 0.009968

    Particles inserted              = 41
    Collisions                      = 537
    Acceptance rate                 = 0.5178399229

Cloud name: dsmc
    Number of dsmc particles        = 18117
    Number of molecules             = 9.0585e+16
    Mass in system                  = 4.3458272e-09
    Average linear momentum         = (-6.689611551e-26 2.591339056e-25 6.256429928e-26)
   |Average linear momentum|        = 2.748449796e-25
    Average linear kinetic energy   = 7.403593018e-21
    Average internal energy         = 4.938119359e-21
    Average total energy            = 1.234171238e-20

ExecutionTime = 37.73 s  ClockTime = 39 s

fieldAverage fieldAverage1 write:
    Calculating averages

Time = 0.00997

    Particles inserted              = 41
    Collisions                      = 533
    Acceptance rate                 = 0.5189873418

Cloud name: dsmc
    Number of dsmc particles        = 18117
    Number of molecules             = 9.0585e+16
    Mass in system                  = 4.346092e-09
    Average linear momentum         = (-8.002327812e-26 2.80751682e-25 5.872267056e-26)
   |Average linear momentum|        = 2.977811009e-25
    Average linear kinetic energy   = 7.408007315e-21
    Average internal energy         = 4.929326854e-21
    Average total energy            = 1.233733417e-20

ExecutionTime = 37.73 s  ClockTime = 39 s

fieldAverage fieldAverage1 write:
    Calculating averages

Time = 0.009972

    Particles inserted              = 58
    Collisions                      = 603
    Acceptance rate                 = 0.5646067416

Cloud name: dsmc
    Number of dsmc particles        = 18129
    Number of molecules             = 9.0645e+16
    Mass in system                  = 4.3492792e-09
    Average linear momentum         = (-9.402343684e-26 2.577845874e-25 5.516854709e-26)
   |Average linear momentum|        = 2.798872429e-25
    Average linear kinetic energy   = 7.406019564e-21
    Average internal energy         = 4.923210134e-21
    Average total energy            = 1.23292297e-20

ExecutionTime = 37.73 s  ClockTime = 39 s

fieldAverage fieldAverage1 write:
    Calculating averages

Time = 0.009974

    Particles inserted              = 66
    Collisions                      = 582
    Acceptance rate                 = 0.5590778098

Cloud name: dsmc
    Number of dsmc particles        = 18141
    Number of molecules             = 9.0705e+16
    Mass in system                  = 4.3524002e-09
    Average linear momentum         = (-8.809607245e-26 2.407695243e-25 6.013857949e-26)
   |Average linear momentum|        = 2.633391929e-25
    Average linear kinetic energy   = 7.410089317e-21
    Average internal energy         = 4.929501022e-21
    Average total energy            = 1.233959034e-20

ExecutionTime = 37.75 s  ClockTime = 39 s

fieldAverage fieldAverage1 write:
    Calculating averages

Time = 0.009976

    Particles inserted              = 58
    Collisions                      = 567
    Acceptance rate                 = 0.5436241611

Cloud name: dsmc
    Number of dsmc particles        = 18145
    Number of molecules             = 9.0725e+16
    Mass in system                  = 4.3535288e-09
    Average linear momentum         = (-9.152092617e-26 2.483376866e-25 7.407876422e-26)
   |Average linear momentum|        = 2.748369513e-25
    Average linear kinetic energy   = 7.403490596e-21
    Average internal energy         = 4.933534894e-21
    Average total energy            = 1.233702549e-20

ExecutionTime = 37.75 s  ClockTime = 39 s

fieldAverage fieldAverage1 write:
    Calculating averages

Time = 0.009978

    Particles inserted              = 34
    Collisions                      = 573
    Acceptance rate                 = 0.5478011472

Cloud name: dsmc
    Number of dsmc particles        = 18133
    Number of molecules             = 9.0665e+16
    Mass in system                  = 4.3507719e-09
    Average linear momentum         = (-8.719915217e-26 2.421302543e-25 7.884114221e-26)
   |Average linear momentum|        = 2.691592055e-25
    Average linear kinetic energy   = 7.400649804e-21
    Average internal energy         = 4.936108487e-21
    Average total energy            = 1.233675829e-20

ExecutionTime = 37.76 s  ClockTime = 39 s

fieldAverage fieldAverage1 write:
    Calculating averages

Time = 0.00998

    Particles inserted              = 41
    Collisions                      = 570
    Acceptance rate                 = 0.5372290292

Cloud name: dsmc
    Number of dsmc particles        = 18140
    Number of molecules             = 9.07e+16
    Mass in system                  = 4.3527304e-09
    Average linear momentum         = (-9.194215333e-26 2.485178459e-25 8.910940363e-26)
   |Average linear momentum|        = 2.795620952e-25
    Average linear kinetic energy   = 7.405047813e-21
    Average internal energy         = 4.939286478e-21
    Average total energy            = 1.234433429e-20

ExecutionTime = 37.76 s  ClockTime = 39 s

fieldAverage fieldAverage1 write:
    Calculating averages

Time = 0.009982

    Particles inserted              = 59
    Collisions                      = 567
    Acceptance rate                 = 0.547826087

Cloud name: dsmc
    Number of dsmc particles        = 18157
    Number of molecules             = 9.0785e+16
    Mass in system                  = 4.3568815e-09
    Average linear momentum         = (-8.925420787e-26 2.523288026e-25 7.975484626e-26)
   |Average linear momentum|        = 2.792793829e-25
    Average linear kinetic energy   = 7.413273722e-21
    Average internal energy         = 4.938904961e-21
    Average total energy            = 1.235217868e-20

ExecutionTime = 37.78 s  ClockTime = 39 s

fieldAverage fieldAverage1 write:
    Calculating averages

Time = 0.009984

    Particles inserted              = 58
    Collisions                      = 579
    Acceptance rate                 = 0.5467422096

Cloud name: dsmc
    Number of dsmc particles        = 18166
    Number of molecules             = 9.083e+16
    Mass in system                  = 4.358974e-09
    Average linear momentum         = (-1.256187349e-25 2.574396268e-25 8.696260346e-26)
   |Average linear momentum|        = 2.993621926e-25
    Average linear kinetic energy   = 7.415811141e-21
    Average internal energy         = 4.938148675e-21
    Average total energy            = 1.235395982e-20

ExecutionTime = 37.78 s  ClockTime = 39 s

fieldAverage fieldAverage1 write:
    Calculating averages

Time = 0.009986

    Particles inserted              = 38
    Collisions                      = 591
    Acceptance rate                 = 0.5575471698

Cloud name: dsmc
    Number of dsmc particles        = 18155
    Number of molecules             = 9.0775e+16
    Mass in system                  = 4.3561517e-09
    Average linear momentum         = (-1.46431221e-25 2.462231744e-25 8.511862171e-26)
   |Average linear momentum|        = 2.988530305e-25
    Average linear kinetic energy   = 7.420157146e-21
    Average internal energy         = 4.936966913e-21
    Average total energy            = 1.235712406e-20

ExecutionTime = 37.78 s  ClockTime = 39 s

fieldAverage fieldAverage1 write:
    Calculating averages

Time = 0.009988

    Particles inserted              = 25
    Collisions                      = 583
    Acceptance rate                 = 0.5489642185

Cloud name: dsmc
    Number of dsmc particles        = 18142
    Number of molecules             = 9.071e+16
    Mass in system                  = 4.3530299e-09
    Average linear momentum         = (-1.621341311e-25 2.429119254e-25 7.533206131e-26)
   |Average linear momentum|        = 3.016100121e-25
    Average linear kinetic energy   = 7.422029079e-21
    Average internal energy         = 4.937725276e-21
    Average total energy            = 1.235975435e-20

ExecutionTime = 37.79 s  ClockTime = 39 s

fieldAverage fieldAverage1 write:
    Calculating averages

Time = 0.00999

    Particles inserted              = 36
    Collisions                      = 556
    Acceptance rate                 = 0.5356454721

Cloud name: dsmc
    Number of dsmc particles        = 18150
    Number of molecules             = 9.075e+16
    Mass in system                  = 4.3548568e-09
    Average linear momentum         = (-1.601678391e-25 2.41034338e-25 8.170267639e-26)
   |Average linear momentum|        = 3.007101863e-25
    Average linear kinetic energy   = 7.421337182e-21
    Average internal energy         = 4.937439766e-21
    Average total energy            = 1.235877695e-20

ExecutionTime = 37.79 s  ClockTime = 39 s

fieldAverage fieldAverage1 write:
    Calculating averages

Time = 0.009992

    Particles inserted              = 35
    Collisions                      = 614
    Acceptance rate                 = 0.5674676525

Cloud name: dsmc
    Number of dsmc particles        = 18143
    Number of molecules             = 9.0715e+16
    Mass in system                  = 4.35313e-09
    Average linear momentum         = (-1.499913503e-25 2.410494141e-25 8.917076585e-26)
   |Average linear momentum|        = 2.975796544e-25
    Average linear kinetic energy   = 7.414708843e-21
    Average internal energy         = 4.934408464e-21
    Average total energy            = 1.234911731e-20

ExecutionTime = 37.79 s  ClockTime = 39 s

fieldAverage fieldAverage1 write:
    Calculating averages

Time = 0.009994

    Particles inserted              = 48
    Collisions                      = 574
    Acceptance rate                 = 0.5677546983

Cloud name: dsmc
    Number of dsmc particles        = 18140
    Number of molecules             = 9.07e+16
    Mass in system                  = 4.3523663e-09
    Average linear momentum         = (-1.280617917e-25 2.276968872e-25 8.929476933e-26)
   |Average linear momentum|        = 2.760783417e-25
    Average linear kinetic energy   = 7.403948999e-21
    Average internal energy         = 4.933930686e-21
    Average total energy            = 1.233787969e-20

ExecutionTime = 37.81 s  ClockTime = 39 s

fieldAverage fieldAverage1 write:
    Calculating averages

Time = 0.009996

    Particles inserted              = 39
    Collisions                      = 633
    Acceptance rate                 = 0.5672043011

Cloud name: dsmc
    Number of dsmc particles        = 18136
    Number of molecules             = 9.068e+16
    Mass in system                  = 4.351337e-09
    Average linear momentum         = (-1.348775921e-25 2.134162903e-25 9.168832098e-26)
   |Average linear momentum|        = 2.685986337e-25
    Average linear kinetic energy   = 7.40735868e-21
    Average internal energy         = 4.928276787e-21
    Average total energy            = 1.233563547e-20

ExecutionTime = 37.82 s  ClockTime = 40 s

fieldAverage fieldAverage1 write:
    Calculating averages

Time = 0.009998

    Particles inserted              = 42
    Collisions                      = 556
    Acceptance rate                 = 0.5554445554

Cloud name: dsmc
    Number of dsmc particles        = 18138
    Number of molecules             = 9.069e+16
    Mass in system                  = 4.3515703e-09
    Average linear momentum         = (-1.525404074e-25 2.246074773e-25 6.351270826e-26)
   |Average linear momentum|        = 2.788385892e-25
    Average linear kinetic energy   = 7.408129244e-21
    Average internal energy         = 4.927960569e-21
    Average total energy            = 1.233608981e-20

ExecutionTime = 37.82 s  ClockTime = 40 s

fieldAverage fieldAverage1 write:
    Calculating averages

Time = 0.01

    Particles inserted              = 60
    Collisions                      = 630
    Acceptance rate                 = 0.5833333333

Cloud name: dsmc
    Number of dsmc particles        = 18152
    Number of molecules             = 9.076e+16
    Mass in system                  = 4.3547922e-09
    Average linear momentum         = (-1.613870099e-25 2.355880794e-25 6.843003645e-26)
   |Average linear momentum|        = 2.936497574e-25
    Average linear kinetic energy   = 7.409077994e-21
    Average internal energy         = 4.924905865e-21
    Average total energy            = 1.233398386e-20

ExecutionTime = 37.92 s  ClockTime = 40 s

fieldAverage fieldAverage1 write:
    Calculating averages

    Writing average fields


Calculating dsmcFields.
    Calculating UMean field.
    Calculating translationalT field.
    Calculating internalT field.
    Calculating overallT field.
    Calculating pressure field.
    mag(UMean) max/min : 78.67505948 2.978837522
    translationalT max/min : 613.2261696 293.1515114
    internalT max/min : 567.6619523 295.9160238
    overallT max/min : 572.0168624 294.3431501
    p max/min : 0.617122662 0.379708686
dsmcFields written.

forces forces1 write:
    sum of forces:
        pressure : (0.000275467275 -0.001028057866 -2.255117365e-21)
        viscous  : (2.358919352e-05 6.320705303e-06 4.03294698e-05)
        porous   : (0 0 0)
    sum of moments:
        pressure : (-1.432139274e-22 5.344816535e-22 -0.0001312923991)
        viscous  : (3.609529904e-06 -1.347094899e-05 -3.315800592e-15)
        porous   : (0 0 0)

End

Finalising parallel run
