--------------------------------------------------------------------------
WARNING: Linux kernel CMA support was requested via the
btl_vader_single_copy_mechanism MCA variable, but CMA support is
not available due to restrictive ptrace settings.

The vader shared memory BTL will fall back on another single-copy
mechanism if one is available. This may result in lower performance.

  Local host: DESKTOP-KF81SG4
--------------------------------------------------------------------------
/*---------------------------------------------------------------------------*\
  =========                 |
  \\      /  F ield         | OpenFOAM: The Open Source CFD Toolbox
   \\    /   O peration     | Website:  https://openfoam.org
    \\  /    A nd           | Version:  7
     \\/     M anipulation  |
\*---------------------------------------------------------------------------*/
Build  : 7-1ff648926f77
Exec   : dsmcFoam -parallel
Date   : Feb 17 2020
Time   : 20:22:16
Host   : "DESKTOP-KF81SG4"
PID    : 8762
I/O    : uncollated
Case   : /home/anthonygay1812/OpenFOAM/tutorials/tutorials/discreteMethods/dsmcFoam/wedge15Ma5
nProcs : 4
Slaves : 
3
(
"DESKTOP-KF81SG4.8763"
"DESKTOP-KF81SG4.8764"
"DESKTOP-KF81SG4.8765"
)

Pstream initialized with:
    floatTransfer      : 0
    nProcsSimpleSum    : 0
    commsType          : nonBlocking
    polling iterations : 0
sigFpe : Enabling floating point exception trapping (FOAM_SIGFPE).
fileModificationChecking : Monitoring run-time modified files using timeStampMaster (fileModificationSkew 10)
allowSystemOperations : Allowing user-supplied system call operations

// * * * * * * * * * * * * * * * * * * * * * * * * * * * * * * * * * * * * * //
Create time

Create mesh for time = 0


Constructing dsmcCloud 
Selecting BinaryCollisionModel LarsenBorgnakkeVariableHardSphere
Selecting WallInteractionModel MaxwellianThermal
Selecting InflowBoundaryModel FreeStream

Constructing constant properties for
    N2
    O2

Starting time loop

fieldAverage fieldAverage1:
    Starting averaging at time 0

forces forces1:
    Not including porosity effects
Time = 2e-06

--> FOAM Warning : 
    From function void Foam::particle::locate(const vector&, Foam::label, bool, Foam::string)
    in file particle/particle.C at line 495
    Particle initialised with a location outside of the mesh.
--> FOAM Warning : 
    From function void Foam::particle::locate(const vector&, Foam::label, bool, Foam::string)
    in file particle/particle.C at line 495
    Particle initialised with a location outside of the mesh.
--> FOAM Warning : 
    From function void Foam::particle::locate(const vector&, Foam::label, bool, Foam::string)
    in file particle/particle.C at line 495
    Particle initialised with a location outside of the mesh.
--> FOAM Warning : 
    From function void Foam::particle::locate(const vector&, Foam::label, bool, Foam::string)
    in file particle/particle.C at line 495
    Particle initialised with a location outside of the mesh.
--> FOAM Warning : 
    From function void Foam::particle::locate(const vector&, Foam::label, bool, Foam::string)
    in file particle/particle.C at line 495
    Particle initialised with a location outside of the mesh.
--> FOAM Warning : 
    From function void Foam::particle::locate(const vector&, Foam::label, bool, Foam::string)
    in file particle/particle.C at line 495
    Particle initialised with a location outside of the mesh.
--> FOAM Warning : 
    From function void Foam::particle::locate(const vector&, Foam::label, bool, Foam::string)
    in file particle/particle.C at line 495
    Particle initialised with a location outside of the mesh.
--> FOAM Warning : 
    From function void Foam::particle::locate(const vector&, Foam::label, bool, Foam::string)
    in file particle/particle.C at line 495
    Particle initialised with a location outside of the mesh.
--> FOAM Warning : 
    From function void Foam::particle::locate(const vector&, Foam::label, bool, Foam::string)
    in file particle/particle.C at line 495
    Particle initialised with a location outside of the mesh.
--> FOAM Warning : 
    From function void Foam::particle::locate(const vector&, Foam::label, bool, Foam::string)
    in file particle/particle.C at line 495
    Particle initialised with a location outside of the mesh.
--> FOAM Warning : 
    From function void Foam::particle::locate(const vector&, Foam::label, bool, Foam::string)
    in file particle/particle.C at line 495
    Particle initialised with a location outside of the mesh.
--> FOAM Warning : 
    From function void Foam::particle::locate(const vector&, Foam::label, bool, Foam::string)
    in file particle/particle.C at line 495
    Particle initialised with a location outside of the mesh.
--> FOAM Warning : 
    From function void Foam::particle::locate(const vector&, Foam::label, bool, Foam::string)
    in file particle/particle.C at line 495
    Particle initialised with a location outside of the mesh.
--> FOAM Warning : 
    From function void Foam::particle::locate(const vector&, Foam::label, bool, Foam::string)
    in file particle/particle.C at line 495
    Particle initialised with a location outside of the mesh.
--> FOAM Warning : 
    From function void Foam::particle::locate(const vector&, Foam::label, bool, Foam::string)
    in file particle/particle.C at line 495
    Particle initialised with a location outside of the mesh.
--> FOAM Warning : 
    From function void Foam::particle::locate(const vector&, Foam::label, bool, Foam::string)
    in file particle/particle.C at line 495
    Particle initialised with a location outside of the mesh.
--> FOAM Warning : 
    From function void Foam::particle::locate(const vector&, Foam::label, bool, Foam::string)
    in file particle/particle.C at line 495
    Particle initialised with a location outside of the mesh.
--> FOAM Warning : 
    From function void Foam::particle::locate(const vector&, Foam::label, bool, Foam::string)
    in file particle/particle.C at line 495
    Particle initialised with a location outside of the mesh.
--> FOAM Warning : 
    From function void Foam::particle::locate(const vector&, Foam::label, bool, Foam::string)
    in file particle/particle.C at line 495
    Particle initialised with a location outside of the mesh.
--> FOAM Warning : 
    From function void Foam::particle::locate(const vector&, Foam::label, bool, Foam::string)
    in file particle/particle.C at line 495
    Particle initialised with a location outside of the mesh.
--> FOAM Warning : 
    From function void Foam::particle::locate(const vector&, Foam::label, bool, Foam::string)
    in file particle/particle.C at line 495
    Particle initialised with a location outside of the mesh.
--> FOAM Warning : 
    From function void Foam::particle::locate(const vector&, Foam::label, bool, Foam::string)
    in file particle/particle.C at line 495
    Particle initialised with a location outside of the mesh.
--> FOAM Warning : 
    From function void Foam::particle::locate(const vector&, Foam::label, bool, Foam::string)
    in file particle/particle.C at line 495
    Particle initialised with a location outside of the mesh.
--> FOAM Warning : 
    From function void Foam::particle::locate(const vector&, Foam::label, bool, Foam::string)
    in file particle/particle.C at line 495
    Particle initialised with a location outside of the mesh.
--> FOAM Warning : 
    From function void Foam::particle::locate(const vector&, Foam::label, bool, Foam::string)
    in file particle/particle.C at line 495
    Particle initialised with a location outside of the mesh.
--> FOAM Warning : 
    From function void Foam::particle::locate(const vector&, Foam::label, bool, Foam::string)
    in file particle/particle.C at line 495
    Particle initialised with a location outside of the mesh.
--> FOAM Warning : 
    From function void Foam::particle::locate(const vector&, Foam::label, bool, Foam::string)
    in file particle/particle.C at line 495
    Particle initialised with a location outside of the mesh.
--> FOAM Warning : 
    From function void Foam::particle::locate(const vector&, Foam::label, bool, Foam::string)
    in file particle/particle.C at line 495
    Particle initialised with a location outside of the mesh.
--> FOAM Warning : 
    From function void Foam::particle::locate(const vector&, Foam::label, bool, Foam::string)
    in file particle/particle.C at line 495
    Particle initialised with a location outside of the mesh.
--> FOAM Warning : 
    From function void Foam::particle::locate(const vector&, Foam::label, bool, Foam::string)
    in file particle/particle.C at line 495
    Particle initialised with a location outside of the mesh.
--> FOAM Warning : 
    From function void Foam::particle::locate(const vector&, Foam::label, bool, Foam::string)
    in file particle/particle.C at line 495
    Particle initialised with a location outside of the mesh.
--> FOAM Warning : 
    From function void Foam::particle::locate(const vector&, Foam::label, bool, Foam::string)
    in file particle/particle.C at line 495
    Particle initialised with a location outside of the mesh.
--> FOAM Warning : 
    From function void Foam::particle::locate(const vector&, Foam::label, bool, Foam::string)
    in file particle/particle.C at line 495
    Particle initialised with a location outside of the mesh.
--> FOAM Warning : 
    From function void Foam::particle::locate(const vector&, Foam::label, bool, Foam::string)
    in file particle/particle.C at line 495
    Particle initialised with a location outside of the mesh.
--> FOAM Warning : 
    From function void Foam::particle::locate(const vector&, Foam::label, bool, Foam::string)
    in file particle/particle.C at line 495
    Particle initialised with a location outside of the mesh.
--> FOAM Warning : 
    From function void Foam::particle::locate(const vector&, Foam::label, bool, Foam::string)
    in file particle/particle.C at line 495
    Particle initialised with a location outside of the mesh.
--> FOAM Warning : 
    From function void Foam::particle::locate(const vector&, Foam::label, bool, Foam::string)
    in file particle/particle.C at line 495
    Particle initialised with a location outside of the mesh.
--> FOAM Warning : 
    From function void Foam::particle::locate(const vector&, Foam::label, bool, Foam::string)
    in file particle/particle.C at line 495
    Particle initialised with a location outside of the mesh.
--> FOAM Warning : 
    From function void Foam::particle::locate(const vector&, Foam::label, bool, Foam::string)
    in file particle/particle.C at line 495
    Particle initialised with a location outside of the mesh.
--> FOAM Warning : 
    From function void Foam::particle::locate(const vector&, Foam::label, bool, Foam::string)
    in file particle/particle.C at line 495
    Particle initialised with a location outside of the mesh.
--> FOAM Warning : 
    From function void Foam::particle::locate(const vector&, Foam::label, bool, Foam::string)
    in file particle/particle.C at line 495
    Particle initialised with a location outside of the mesh.
--> FOAM Warning : 
    From function void Foam::particle::locate(const vector&, Foam::label, bool, Foam::string)
    in file particle/particle.C at line 495
    Particle initialised with a location outside of the mesh.
--> FOAM Warning : 
    From function void Foam::particle::locate(const vector&, Foam::label, bool, Foam::string)
    in file particle/particle.C at line 495
    Particle initialised with a location outside of the mesh.
--> FOAM Warning : 
    From function void Foam::particle::locate(const vector&, Foam::label, bool, Foam::string)
    in file particle/particle.C at line 495
    Particle initialised with a location outside of the mesh.
--> FOAM Warning : 
    From function void Foam::particle::locate(const vector&, Foam::label, bool, Foam::string)
    in file particle/particle.C at line 495
    Particle initialised with a location outside of the mesh.
--> FOAM Warning : 
    From function void Foam::particle::locate(const vector&, Foam::label, bool, Foam::string)
    in file particle/particle.C at line 495
    Particle initialised with a location outside of the mesh.
--> FOAM Warning : 
    From function void Foam::particle::locate(const vector&, Foam::label, bool, Foam::string)
    in file particle/particle.C at line 495
    Particle initialised with a location outside of the mesh.
--> FOAM Warning : 
    From function void Foam::particle::locate(const vector&, Foam::label, bool, Foam::string)
    in file particle/particle.C at line 495
    Particle initialised with a location outside of the mesh.
--> FOAM Warning : 
    From function void Foam::particle::locate(const vector&, Foam::label, bool, Foam::string)
    in file particle/particle.C at line 495
    Particle initialised with a location outside of the mesh.
--> FOAM Warning : 
    From function void Foam::particle::locate(const vector&, Foam::label, bool, Foam::string)
    in file particle/particle.C at line 495
    Particle initialised with a location outside of the mesh.
--> FOAM Warning : 
    From function void Foam::particle::locate(const vector&, Foam::label, bool, Foam::string)
    in file particle/particle.C at line 495
    Particle initialised with a location outside of the mesh.
--> FOAM Warning : 
    From function void Foam::particle::locate(const vector&, Foam::label, bool, Foam::string)
    in file particle/particle.C at line 495
    Particle initialised with a location outside of the mesh.
--> FOAM Warning : 
    From function void Foam::particle::locate(const vector&, Foam::label, bool, Foam::string)
    in file particle/particle.C at line 495
    Particle initialised with a location outside of the mesh.
--> FOAM Warning : 
    From function void Foam::particle::locate(const vector&, Foam::label, bool, Foam::string)
    in file particle/particle.C at line 495
    Particle initialised with a location outside of the mesh.
    Particles inserted              = 203
    Collisions                      = 463
    Acceptance rate                 = 0.9935622318

Cloud name: dsmc
    Number of dsmc particles        = 21027
    Number of molecules             = 1.05135e+17
    Mass in system                  = 5.0446123e-09
    Average linear momentum         = (8.296292632e-23 -1.38972241e-25 -5.467826992e-26)
   |Average linear momentum|        = 8.296306074e-23
    Average linear kinetic energy   = 7.818215116e-20
    Average internal energy         = 4.11192005e-21
    Average total energy            = 8.229407121e-20

ExecutionTime = 0.29 s  ClockTime = 0 s

    Reading/initialising field rhoNMean
    Reading/initialising field rhoMMean
    Reading/initialising field dsmcRhoNMean
    Reading/initialising field momentumMean
    Reading/initialising field linearKEMean
    Reading/initialising field internalEMean
    Reading/initialising field iDofMean
    Reading/initialising field qMean
    Reading/initialising field fDMean
fieldAverage fieldAverage1 write:
    Calculating averages

Time = 4e-06

--> FOAM Warning : 
    From function void Foam::particle::locate(const vector&, Foam::label, bool, Foam::string)
    in file particle/particle.C at line 495
    Particle initialised with a location outside of the mesh.
--> FOAM Warning : 
    From function void Foam::particle::locate(const vector&, Foam::label, bool, Foam::string)
    in file particle/particle.C at line 495
    Particle initialised with a location outside of the mesh.
--> FOAM Warning : 
    From function void Foam::particle::locate(const vector&, Foam::label, bool, Foam::string)
    in file particle/particle.C at line 495
    Particle initialised with a location outside of the mesh.
--> FOAM Warning : 
    From function void Foam::particle::locate(const vector&, Foam::label, bool, Foam::string)
    in file particle/particle.C at line 495
    Particle initialised with a location outside of the mesh.
--> FOAM Warning : 
    From function void Foam::particle::locate(const vector&, Foam::label, bool, Foam::string)
    in file particle/particle.C at line 495
    Particle initialised with a location outside of the mesh.
--> FOAM Warning : 
    From function void Foam::particle::locate(const vector&, Foam::label, bool, Foam::string)
    in file particle/particle.C at line 495
    Particle initialised with a location outside of the mesh.
--> FOAM Warning : 
    From function void Foam::particle::locate(const vector&, Foam::label, bool, Foam::string)
    in file particle/particle.C at line 495
    Particle initialised with a location outside of the mesh.
--> FOAM Warning : 
    From function void Foam::particle::locate(const vector&, Foam::label, bool, Foam::string)
    in file particle/particle.C at line 495
    Particle initialised with a location outside of the mesh.
--> FOAM Warning : 
    From function void Foam::particle::locate(const vector&, Foam::label, bool, Foam::string)
    in file particle/particle.C at line 495
    Particle initialised with a location outside of the mesh.
--> FOAM Warning : 
    From function void Foam::particle::locate(const vector&, Foam::label, bool, Foam::string)
    in file particle/particle.C at line 495
    Particle initialised with a location outside of the mesh.
--> FOAM Warning : 
    From function void Foam::particle::locate(const vector&, Foam::label, bool, Foam::string)
    in file particle/particle.C at line 495
    Particle initialised with a location outside of the mesh.
--> FOAM Warning : 
    From function void Foam::particle::locate(const vector&, Foam::label, bool, Foam::string)
    in file particle/particle.C at line 495
    Particle initialised with a location outside of the mesh.
--> FOAM Warning : 
    From function void Foam::particle::locate(const vector&, Foam::label, bool, Foam::string)
    in file particle/particle.C at line 495
    Particle initialised with a location outside of the mesh.
--> FOAM Warning : 
    From function void Foam::particle::locate(const vector&, Foam::label, bool, Foam::string)
    in file particle/particle.C at line 495
    Particle initialised with a location outside of the mesh.
--> FOAM Warning : 
    From function void Foam::particle::locate(const vector&, Foam::label, bool, Foam::string)
    in file particle/particle.C at line 495
    Particle initialised with a location outside of the mesh.
--> FOAM Warning : 
    From function void Foam::particle::locate(const vector&, Foam::label, bool, Foam::string)
    in file particle/particle.C at line 495
    Particle initialised with a location outside of the mesh.
--> FOAM Warning : 
    From function void Foam::particle::locate(const vector&, Foam::label, bool, Foam::string)
    in file particle/particle.C at line 495
    Particle initialised with a location outside of the mesh.
--> FOAM Warning : 
    From function void Foam::particle::locate(const vector&, Foam::label, bool, Foam::string)
    in file particle/particle.C at line 495
    Particle initialised with a location outside of the mesh.
--> FOAM Warning : 
    From function void Foam::particle::locate(const vector&, Foam::label, bool, Foam::string)
    in file particle/particle.C at line 495
    Particle initialised with a location outside of the mesh.
--> FOAM Warning : 
    From function void Foam::particle::locate(const vector&, Foam::label, bool, Foam::string)
    in file particle/particle.C at line 495
    Particle initialised with a location outside of the mesh.
--> FOAM Warning : 
    From function void Foam::particle::locate(const vector&, Foam::label, bool, Foam::string)
    in file particle/particle.C at line 495
    Particle initialised with a location outside of the mesh.
--> FOAM Warning : 
    From function void Foam::particle::locate(const vector&, Foam::label, bool, Foam::string)
    in file particle/particle.C at line 495
    Particle initialised with a location outside of the mesh.
--> FOAM Warning : 
    From function void Foam::particle::locate(const vector&, Foam::label, bool, Foam::string)
    in file particle/particle.C at line 495
    Particle initialised with a location outside of the mesh.
--> FOAM Warning : 
    From function void Foam::particle::locate(const vector&, Foam::label, bool, Foam::string)
    in file particle/particle.C at line 495
    Particle initialised with a location outside of the mesh.
--> FOAM Warning : 
    From function void Foam::particle::locate(const vector&, Foam::label, bool, Foam::string)
    in file particle/particle.C at line 495
    Particle initialised with a location outside of the mesh.
--> FOAM Warning : 
    From function void Foam::particle::locate(const vector&, Foam::label, bool, Foam::string)
    in file particle/particle.C at line 495
    Particle initialised with a location outside of the mesh.
--> FOAM Warning : 
    From function void Foam::particle::locate(const vector&, Foam::label, bool, Foam::string)
    in file particle/particle.C at line 495
    Particle initialised with a location outside of the mesh.
--> FOAM Warning : 
    From function void Foam::particle::locate(const vector&, Foam::label, bool, Foam::string)
    in file particle/particle.C at line 495
    Particle initialised with a location outside of the mesh.
--> FOAM Warning : 
    From function void Foam::particle::locate(const vector&, Foam::label, bool, Foam::string)
    in file particle/particle.C at line 495
    Particle initialised with a location outside of the mesh.
--> FOAM Warning : 
    From function void Foam::particle::locate(const vector&, Foam::label, bool, Foam::string)
    in file particle/particle.C at line 495
    Particle initialised with a location outside of the mesh.
--> FOAM Warning : 
    From function void Foam::particle::locate(const vector&, Foam::label, bool, Foam::string)
    in file particle/particle.C at line 495
    Particle initialised with a location outside of the mesh.
--> FOAM Warning : 
    From function void Foam::particle::locate(const vector&, Foam::label, bool, Foam::string)
    in file particle/particle.C at line 495
    Particle initialised with a location outside of the mesh.
--> FOAM Warning : 
    From function void Foam::particle::locate(const vector&, Foam::label, bool, Foam::string)
    in file particle/particle.C at line 495
    Particle initialised with a location outside of the mesh.
--> FOAM Warning : 
    From function void Foam::particle::locate(const vector&, Foam::label, bool, Foam::string)
    in file particle/particle.C at line 495
    Particle initialised with a location outside of the mesh.
--> FOAM Warning : 
    From function void Foam::particle::locate(const vector&, Foam::label, bool, Foam::string)
    in file particle/particle.C at line 495
    Particle initialised with a location outside of the mesh.
--> FOAM Warning : 
    From function void Foam::particle::locate(const vector&, Foam::label, bool, Foam::string)
    in file particle/particle.C at line 495
    Particle initialised with a location outside of the mesh.
--> FOAM Warning : 
    From function void Foam::particle::locate(const vector&, Foam::label, bool, Foam::string)
    in file particle/particle.C at line 495
    Particle initialised with a location outside of the mesh.
--> FOAM Warning : 
    From function void Foam::particle::locate(const vector&, Foam::label, bool, Foam::string)
    in file particle/particle.C at line 495
    Particle initialised with a location outside of the mesh.
--> FOAM Warning : 
    From function void Foam::particle::locate(const vector&, Foam::label, bool, Foam::string)
    in file particle/particle.C at line 495
    Particle initialised with a location outside of the mesh.
--> FOAM Warning : 
    From function void Foam::particle::locate(const vector&, Foam::label, bool, Foam::string)
    in file particle/particle.C at line 495
    Particle initialised with a location outside of the mesh.
--> FOAM Warning : 
    From function void Foam::particle::locate(const vector&, Foam::label, bool, Foam::string)
    in file particle/particle.C at line 495
    Particle initialised with a location outside of the mesh.
--> FOAM Warning : 
    From function void Foam::particle::locate(const vector&, Foam::label, bool, Foam::string)
    in file particle/particle.C at line 495
    Particle initialised with a location outside of the mesh.
--> FOAM Warning : 
    From function void Foam::particle::locate(const vector&, Foam::label, bool, Foam::string)
    in file particle/particle.C at line 495
    Particle initialised with a location outside of the mesh.
--> FOAM Warning : 
    From function void Foam::particle::locate(const vector&, Foam::label, bool, Foam::string)
    in file particle/particle.C at line 495
    Particle initialised with a location outside of the mesh.
--> FOAM Warning : 
    From function void Foam::particle::locate(const vector&, Foam::label, bool, Foam::string)
    in file particle/particle.C at line 495
    Particle initialised with a location outside of the mesh.
--> FOAM Warning : 
    From function void Foam::particle::locate(const vector&, Foam::label, bool, Foam::string)
    in file particle/particle.C at line 495
    Particle initialised with a location outside of the mesh.
--> FOAM Warning : 
    From function void Foam::particle::locate(const vector&, Foam::label, bool, Foam::string)
    in file particle/particle.C at line 500
    Suppressing any further warnings about particles being located outside of the mesh.
    Particles inserted              = 209
    Collisions                      = 499
    Acceptance rate                 = 0.9881188119

Cloud name: dsmc
    Number of dsmc particles        = 21094
    Number of molecules             = 1.0547e+17
    Mass in system                  = 5.0607194e-09
    Average linear momentum         = (8.274375244e-23 -7.504017459e-26 -6.378035481e-26)
   |Average linear momentum|        = 8.274381105e-23
    Average linear kinetic energy   = 7.802339937e-20
    Average internal energy         = 4.114904674e-21
    Average total energy            = 8.213830404e-20

ExecutionTime = 0.3 s  ClockTime = 0 s

fieldAverage fieldAverage1 write:
    Calculating averages

Time = 6e-06

    Particles inserted              = 216
    Collisions                      = 549
    Acceptance rate                 = 0.9547826087

Cloud name: dsmc
    Number of dsmc particles        = 21151
    Number of molecules             = 1.05755e+17
    Mass in system                  = 5.0746008e-09
    Average linear momentum         = (8.252964583e-23 -2.529378089e-26 -6.567692319e-26)
   |Average linear momentum|        = 8.252967584e-23
    Average linear kinetic energy   = 7.788170312e-20
    Average internal energy         = 4.12140265e-21
    Average total energy            = 8.200310577e-20

ExecutionTime = 0.3 s  ClockTime = 0 s

fieldAverage fieldAverage1 write:
    Calculating averages

Time = 8e-06

    Particles inserted              = 192
    Collisions                      = 638
    Acceptance rate                 = 0.9313868613

Cloud name: dsmc
    Number of dsmc particles        = 21195
    Number of molecules             = 1.05975e+17
    Mass in system                  = 5.0853273e-09
    Average linear momentum         = (8.232185082e-23 4.671185366e-26 -6.73273132e-26)
   |Average linear momentum|        = 8.23218916e-23
    Average linear kinetic energy   = 7.772748318e-20
    Average internal energy         = 4.134398436e-21
    Average total energy            = 8.186188162e-20

ExecutionTime = 0.32 s  ClockTime = 0 s

fieldAverage fieldAverage1 write:
    Calculating averages

Time = 1e-05

    Particles inserted              = 197
    Collisions                      = 654
    Acceptance rate                 = 0.8971193416

Cloud name: dsmc
    Number of dsmc particles        = 21237
    Number of molecules             = 1.06185e+17
    Mass in system                  = 5.0957212e-09
    Average linear momentum         = (8.212038941e-23 1.112145962e-25 -7.056775648e-26)
   |Average linear momentum|        = 8.212049504e-23
    Average linear kinetic energy   = 7.756887369e-20
    Average internal energy         = 4.149182439e-21
    Average total energy            = 8.171805612e-20

ExecutionTime = 0.33 s  ClockTime = 0 s

fieldAverage fieldAverage1 write:
    Calculating averages

Time = 1.2e-05

    Particles inserted              = 206
    Collisions                      = 708
    Acceptance rate                 = 0.8773234201

Cloud name: dsmc
    Number of dsmc particles        = 21294
    Number of molecules             = 1.0647e+17
    Mass in system                  = 5.109404e-09
    Average linear momentum         = (8.193202018e-23 1.714343504e-25 -6.364762052e-26)
   |Average linear momentum|        = 8.193222426e-23
    Average linear kinetic energy   = 7.740442246e-20
    Average internal energy         = 4.168070703e-21
    Average total energy            = 8.157249316e-20

ExecutionTime = 0.33 s  ClockTime = 1 s

fieldAverage fieldAverage1 write:
    Calculating averages

Time = 1.4e-05

    Particles inserted              = 210
    Collisions                      = 724
    Acceptance rate                 = 0.8691476591

Cloud name: dsmc
    Number of dsmc particles        = 21341
    Number of molecules             = 1.06705e+17
    Mass in system                  = 5.1207287e-09
    Average linear momentum         = (8.174688022e-23 2.306700933e-25 -5.801529307e-26)
   |Average linear momentum|        = 8.174722626e-23
    Average linear kinetic energy   = 7.728890554e-20
    Average internal energy         = 4.177958789e-21
    Average total energy            = 8.146686433e-20

ExecutionTime = 0.35 s  ClockTime = 1 s

fieldAverage fieldAverage1 write:
    Calculating averages

Time = 1.6e-05

    Particles inserted              = 200
    Collisions                      = 697
    Acceptance rate                 = 0.8573185732

Cloud name: dsmc
    Number of dsmc particles        = 21389
    Number of molecules             = 1.06945e+17
    Mass in system                  = 5.1323521e-09
    Average linear momentum         = (8.156193904e-23 3.067429481e-25 -4.63875289e-26)
   |Average linear momentum|        = 8.156252904e-23
    Average linear kinetic energy   = 7.714610154e-20
    Average internal energy         = 4.204897512e-21
    Average total energy            = 8.135099905e-20

ExecutionTime = 0.37 s  ClockTime = 1 s

fieldAverage fieldAverage1 write:
    Calculating averages

Time = 1.8e-05

    Particles inserted              = 190
    Collisions                      = 764
    Acceptance rate                 = 0.8331515812

Cloud name: dsmc
    Number of dsmc particles        = 21441
    Number of molecules             = 1.07205e+17
    Mass in system                  = 5.1448062e-09
    Average linear momentum         = (8.141225003e-23 3.61795512e-25 -2.293545451e-26)
   |Average linear momentum|        = 8.141305716e-23
    Average linear kinetic energy   = 7.703783415e-20
    Average internal energy         = 4.208404492e-21
    Average total energy            = 8.124623864e-20

ExecutionTime = 0.37 s  ClockTime = 1 s

fieldAverage fieldAverage1 write:
    Calculating averages

Time = 2e-05

    Particles inserted              = 202
    Collisions                      = 764
    Acceptance rate                 = 0.8215053763

Cloud name: dsmc
    Number of dsmc particles        = 21509
    Number of molecules             = 1.07545e+17
    Mass in system                  = 5.1608148e-09
    Average linear momentum         = (8.123910135e-23 4.046432566e-25 -2.067404818e-26)
   |Average linear momentum|        = 8.124011171e-23
    Average linear kinetic energy   = 7.690445742e-20
    Average internal energy         = 4.211991381e-21
    Average total energy            = 8.11164488e-20

ExecutionTime = 0.38 s  ClockTime = 1 s

fieldAverage fieldAverage1 write:
    Calculating averages

Time = 2.2e-05

    Particles inserted              = 206
    Collisions                      = 746
    Acceptance rate                 = 0.787750792

Cloud name: dsmc
    Number of dsmc particles        = 21576
    Number of molecules             = 1.0788e+17
    Mass in system                  = 5.1766571e-09
    Average linear momentum         = (8.112415228e-23 4.272062007e-25 -4.56317254e-26)
   |Average linear momentum|        = 8.112528995e-23
    Average linear kinetic energy   = 7.684964902e-20
    Average internal energy         = 4.218495757e-21
    Average total energy            = 8.106814478e-20

ExecutionTime = 0.4 s  ClockTime = 1 s

fieldAverage fieldAverage1 write:
    Calculating averages

Time = 2.4e-05

    Particles inserted              = 181
    Collisions                      = 799
    Acceptance rate                 = 0.7910891089

Cloud name: dsmc
    Number of dsmc particles        = 21601
    Number of molecules             = 1.08005e+17
    Mass in system                  = 5.1824365e-09
    Average linear momentum         = (8.101216395e-23 4.846484765e-25 -3.800018049e-26)
   |Average linear momentum|        = 8.101362253e-23
    Average linear kinetic energy   = 7.678675566e-20
    Average internal energy         = 4.221889022e-21
    Average total energy            = 8.100864468e-20

ExecutionTime = 0.41 s  ClockTime = 1 s

fieldAverage fieldAverage1 write:
    Calculating averages

Time = 2.6e-05

    Particles inserted              = 181
    Collisions                      = 803
    Acceptance rate                 = 0.8005982054

Cloud name: dsmc
    Number of dsmc particles        = 21614
    Number of molecules             = 1.0807e+17
    Mass in system                  = 5.1855583e-09
    Average linear momentum         = (8.079889667e-23 5.701810638e-25 -5.602918848e-26)
   |Average linear momentum|        = 8.08009279e-23
    Average linear kinetic energy   = 7.661378587e-20
    Average internal energy         = 4.245445274e-21
    Average total energy            = 8.085923115e-20

ExecutionTime = 0.41 s  ClockTime = 1 s

fieldAverage fieldAverage1 write:
    Calculating averages

Time = 2.8e-05

    Particles inserted              = 194
    Collisions                      = 808
    Acceptance rate                 = 0.7937131631

Cloud name: dsmc
    Number of dsmc particles        = 21654
    Number of molecules             = 1.0827e+17
    Mass in system                  = 5.1945273e-09
    Average linear momentum         = (8.066070774e-23 6.117533732e-25 -3.165118485e-26)
   |Average linear momentum|        = 8.066303377e-23
    Average linear kinetic energy   = 7.651557937e-20
    Average internal energy         = 4.255252589e-21
    Average total energy            = 8.077083196e-20

ExecutionTime = 0.43 s  ClockTime = 1 s

fieldAverage fieldAverage1 write:
    Calculating averages

Time = 3e-05

    Particles inserted              = 210
    Collisions                      = 818
    Acceptance rate                 = 0.7805343511

Cloud name: dsmc
    Number of dsmc particles        = 21714
    Number of molecules             = 1.0857e+17
    Mass in system                  = 5.2088745e-09
    Average linear momentum         = (8.053776848e-23 6.503288771e-25 -3.741570935e-26)
   |Average linear momentum|        = 8.054040277e-23
    Average linear kinetic energy   = 7.641585315e-20
    Average internal energy         = 4.291953818e-21
    Average total energy            = 8.070780697e-20

ExecutionTime = 0.43 s  ClockTime = 1 s

fieldAverage fieldAverage1 write:
    Calculating averages

Time = 3.2e-05

    Particles inserted              = 202
    Collisions                      = 846
    Acceptance rate                 = 0.7782888684

Cloud name: dsmc
    Number of dsmc particles        = 21763
    Number of molecules             = 1.08815e+17
    Mass in system                  = 5.2203994e-09
    Average linear momentum         = (8.037262424e-23 7.158106868e-25 -2.615542486e-26)
   |Average linear momentum|        = 8.0375816e-23
    Average linear kinetic energy   = 7.630794779e-20
    Average internal energy         = 4.323617187e-21
    Average total energy            = 8.063156498e-20

ExecutionTime = 0.44 s  ClockTime = 1 s

fieldAverage fieldAverage1 write:
    Calculating averages

Time = 3.4e-05

    Particles inserted              = 190
    Collisions                      = 840
    Acceptance rate                 = 0.7784986098

Cloud name: dsmc
    Number of dsmc particles        = 21805
    Number of molecules             = 1.09025e+17
    Mass in system                  = 5.2304292e-09
    Average linear momentum         = (8.022381267e-23 7.740177602e-25 -5.818895797e-27)
   |Average linear momentum|        = 8.022754674e-23
    Average linear kinetic energy   = 7.617792118e-20
    Average internal energy         = 4.340918793e-21
    Average total energy            = 8.051883997e-20

ExecutionTime = 0.44 s  ClockTime = 1 s

fieldAverage fieldAverage1 write:
    Calculating averages

Time = 3.6e-05

    Particles inserted              = 195
    Collisions                      = 831
    Acceptance rate                 = 0.7616865261

Cloud name: dsmc
    Number of dsmc particles        = 21813
    Number of molecules             = 1.09065e+17
    Mass in system                  = 5.2322561e-09
    Average linear momentum         = (8.009323417e-23 8.648080022e-25 -1.708657082e-26)
   |Average linear momentum|        = 8.009790474e-23
    Average linear kinetic energy   = 7.605625329e-20
    Average internal energy         = 4.366261282e-21
    Average total energy            = 8.042251457e-20

ExecutionTime = 0.46 s  ClockTime = 1 s

fieldAverage fieldAverage1 write:
    Calculating averages

Time = 3.8e-05

    Particles inserted              = 213
    Collisions                      = 866
    Acceptance rate                 = 0.7629955947

Cloud name: dsmc
    Number of dsmc particles        = 21898
    Number of molecules             = 1.0949e+17
    Mass in system                  = 5.2524158e-09
    Average linear momentum         = (7.991973586e-23 9.431021926e-25 -2.101825365e-26)
   |Average linear momentum|        = 7.992530302e-23
    Average linear kinetic energy   = 7.595111198e-20
    Average internal energy         = 4.37727281e-21
    Average total energy            = 8.032838479e-20

ExecutionTime = 0.48 s  ClockTime = 1 s

fieldAverage fieldAverage1 write:
    Calculating averages

Time = 4e-05

    Particles inserted              = 218
    Collisions                      = 924
    Acceptance rate                 = 0.7649006623

Cloud name: dsmc
    Number of dsmc particles        = 21949
    Number of molecules             = 1.09745e+17
    Mass in system                  = 5.2651339e-09
    Average linear momentum         = (7.980270967e-23 1.023801416e-24 -2.875662213e-26)
   |Average linear momentum|        = 7.980928183e-23
    Average linear kinetic energy   = 7.587248761e-20
    Average internal energy         = 4.401667493e-21
    Average total energy            = 8.02741551e-20

ExecutionTime = 0.48 s  ClockTime = 1 s

fieldAverage fieldAverage1 write:
    Calculating averages

Time = 4.2e-05

    Particles inserted              = 184
    Collisions                      = 850
    Acceptance rate                 = 0.7475813544

Cloud name: dsmc
    Number of dsmc particles        = 21964
    Number of molecules             = 1.0982e+17
    Mass in system                  = 5.2685221e-09
    Average linear momentum         = (7.966419297e-23 1.096311488e-24 -2.553224876e-26)
   |Average linear momentum|        = 7.967174023e-23
    Average linear kinetic energy   = 7.575447728e-20
    Average internal energy         = 4.436210398e-21
    Average total energy            = 8.019068768e-20

ExecutionTime = 0.49 s  ClockTime = 1 s

fieldAverage fieldAverage1 write:
    Calculating averages

Time = 4.4e-05

    Particles inserted              = 220
    Collisions                      = 907
    Acceptance rate                 = 0.7647554806

Cloud name: dsmc
    Number of dsmc particles        = 22025
    Number of molecules             = 1.10125e+17
    Mass in system                  = 5.2833997e-09
    Average linear momentum         = (7.952059755e-23 1.168003491e-24 -2.149748799e-26)
   |Average linear momentum|        = 7.952917784e-23
    Average linear kinetic energy   = 7.563681068e-20
    Average internal energy         = 4.458331348e-21
    Average total energy            = 8.009514203e-20

ExecutionTime = 0.51 s  ClockTime = 1 s

fieldAverage fieldAverage1 write:
    Calculating averages

Time = 4.6e-05

    Particles inserted              = 200
    Collisions                      = 894
    Acceptance rate                 = 0.722716249

Cloud name: dsmc
    Number of dsmc particles        = 22098
    Number of molecules             = 1.1049e+17
    Mass in system                  = 5.3008356e-09
    Average linear momentum         = (7.943305841e-23 1.223744317e-24 -1.568407624e-26)
   |Average linear momentum|        = 7.94424859e-23
    Average linear kinetic energy   = 7.558673035e-20
    Average internal energy         = 4.476026585e-21
    Average total energy            = 8.006275693e-20

ExecutionTime = 0.52 s  ClockTime = 1 s

fieldAverage fieldAverage1 write:
    Calculating averages

Time = 4.8e-05

    Particles inserted              = 208
    Collisions                      = 855
    Acceptance rate                 = 0.718487395

Cloud name: dsmc
    Number of dsmc particles        = 22140
    Number of molecules             = 1.107e+17
    Mass in system                  = 5.311395e-09
    Average linear momentum         = (7.929297007e-23 1.287054668e-24 -3.515147182e-26)
   |Average linear momentum|        = 7.930342267e-23
    Average linear kinetic energy   = 7.545454383e-20
    Average internal energy         = 4.502986635e-21
    Average total energy            = 7.995753046e-20

ExecutionTime = 0.52 s  ClockTime = 1 s

fieldAverage fieldAverage1 write:
    Calculating averages

Time = 5e-05

    Particles inserted              = 184
    Collisions                      = 922
    Acceptance rate                 = 0.7317460317

Cloud name: dsmc
    Number of dsmc particles        = 22166
    Number of molecules             = 1.1083e+17
    Mass in system                  = 5.3174731e-09
    Average linear momentum         = (7.914367135e-23 1.362194948e-24 -1.193956808e-26)
   |Average linear momentum|        = 7.915539421e-23
    Average linear kinetic energy   = 7.532076821e-20
    Average internal energy         = 4.537539949e-21
    Average total energy            = 7.985830816e-20

ExecutionTime = 0.54 s  ClockTime = 1 s

fieldAverage fieldAverage1 write:
    Calculating averages

Time = 5.2e-05

    Particles inserted              = 184
    Collisions                      = 921
    Acceptance rate                 = 0.7286392405

Cloud name: dsmc
    Number of dsmc particles        = 22189
    Number of molecules             = 1.10945e+17
    Mass in system                  = 5.3226882e-09
    Average linear momentum         = (7.903354573e-23 1.423590497e-24 -2.427683581e-27)
   |Average linear momentum|        = 7.904636593e-23
    Average linear kinetic energy   = 7.521499846e-20
    Average internal energy         = 4.549161849e-21
    Average total energy            = 7.976416031e-20

ExecutionTime = 0.55 s  ClockTime = 1 s

fieldAverage fieldAverage1 write:
    Calculating averages

Time = 5.4e-05

    Particles inserted              = 212
    Collisions                      = 933
    Acceptance rate                 = 0.7560777958

Cloud name: dsmc
    Number of dsmc particles        = 22237
    Number of molecules             = 1.11185e+17
    Mass in system                  = 5.3341461e-09
    Average linear momentum         = (7.894452908e-23 1.466277233e-24 1.685026478e-26)
   |Average linear momentum|        = 7.895814667e-23
    Average linear kinetic energy   = 7.514529346e-20
    Average internal energy         = 4.588412626e-21
    Average total energy            = 7.973370609e-20

ExecutionTime = 0.55 s  ClockTime = 1 s

fieldAverage fieldAverage1 write:
    Calculating averages

Time = 5.6e-05

    Particles inserted              = 206
    Collisions                      = 951
    Acceptance rate                 = 0.7337962963

Cloud name: dsmc
    Number of dsmc particles        = 22299
    Number of molecules             = 1.11495e+17
    Mass in system                  = 5.3490907e-09
    Average linear momentum         = (7.886132124e-23 1.525698554e-24 -5.883858899e-27)
   |Average linear momentum|        = 7.887607862e-23
    Average linear kinetic energy   = 7.509168668e-20
    Average internal energy         = 4.597841245e-21
    Average total energy            = 7.968952792e-20

ExecutionTime = 0.57 s  ClockTime = 1 s

fieldAverage fieldAverage1 write:
    Calculating averages

Time = 5.8e-05

    Particles inserted              = 178
    Collisions                      = 924
    Acceptance rate                 = 0.7252747253

Cloud name: dsmc
    Number of dsmc particles        = 22334
    Number of molecules             = 1.1167e+17
    Mass in system                  = 5.3571951e-09
    Average linear momentum         = (7.876498234e-23 1.57938277e-24 -1.181997382e-26)
   |Average linear momentum|        = 7.87808164e-23
    Average linear kinetic energy   = 7.50646776e-20
    Average internal energy         = 4.595805061e-21
    Average total energy            = 7.966048267e-20

ExecutionTime = 0.58 s  ClockTime = 1 s

fieldAverage fieldAverage1 write:
    Calculating averages

Time = 6e-05

    Particles inserted              = 191
    Collisions                      = 954
    Acceptance rate                 = 0.7156789197

Cloud name: dsmc
    Number of dsmc particles        = 22368
    Number of molecules             = 1.1184e+17
    Mass in system                  = 5.3652325e-09
    Average linear momentum         = (7.866188828e-23 1.634654972e-24 -2.034080178e-27)
   |Average linear momentum|        = 7.867887117e-23
    Average linear kinetic energy   = 7.499356856e-20
    Average internal energy         = 4.594882673e-21
    Average total energy            = 7.958845124e-20

ExecutionTime = 0.58 s  ClockTime = 1 s

fieldAverage fieldAverage1 write:
    Calculating averages

Time = 6.2e-05

    Particles inserted              = 194
    Collisions                      = 917
    Acceptance rate                 = 0.7086553323

Cloud name: dsmc
    Number of dsmc particles        = 22375
    Number of molecules             = 1.11875e+17
    Mass in system                  = 5.3667607e-09
    Average linear momentum         = (7.854263241e-23 1.704768824e-24 8.829880785e-27)
   |Average linear momentum|        = 7.856113174e-23
    Average linear kinetic energy   = 7.489170105e-20
    Average internal energy         = 4.629035379e-21
    Average total energy            = 7.952073643e-20

ExecutionTime = 0.6 s  ClockTime = 1 s

fieldAverage fieldAverage1 write:
    Calculating averages

Time = 6.4e-05

    Particles inserted              = 205
    Collisions                      = 935
    Acceptance rate                 = 0.697240865

Cloud name: dsmc
    Number of dsmc particles        = 22407
    Number of molecules             = 1.12035e+17
    Mass in system                  = 5.3741676e-09
    Average linear momentum         = (7.847770829e-23 1.73618095e-24 -2.349525959e-27)
   |Average linear momentum|        = 7.849691094e-23
    Average linear kinetic energy   = 7.483014089e-20
    Average internal energy         = 4.657395065e-21
    Average total energy            = 7.948753596e-20

ExecutionTime = 0.62 s  ClockTime = 1 s

fieldAverage fieldAverage1 write:
    Calculating averages

Time = 6.6e-05

    Particles inserted              = 202
    Collisions                      = 932
    Acceptance rate                 = 0.7023360965

Cloud name: dsmc
    Number of dsmc particles        = 22470
    Number of molecules             = 1.1235e+17
    Mass in system                  = 5.3894771e-09
    Average linear momentum         = (7.830458484e-23 1.836443768e-24 2.299788425e-27)
   |Average linear momentum|        = 7.832611657e-23
    Average linear kinetic energy   = 7.468927966e-20
    Average internal energy         = 4.674631965e-21
    Average total energy            = 7.936391162e-20

ExecutionTime = 0.63 s  ClockTime = 1 s

fieldAverage fieldAverage1 write:
    Calculating averages

Time = 6.8e-05

    Particles inserted              = 185
    Collisions                      = 959
    Acceptance rate                 = 0.7082717873

Cloud name: dsmc
    Number of dsmc particles        = 22492
    Number of molecules             = 1.1246e+17
    Mass in system                  = 5.39489e-09
    Average linear momentum         = (7.821316363e-23 1.892732852e-24 -4.258985234e-27)
   |Average linear momentum|        = 7.823606215e-23
    Average linear kinetic energy   = 7.462042249e-20
    Average internal energy         = 4.69652514e-21
    Average total energy            = 7.931694763e-20

ExecutionTime = 0.63 s  ClockTime = 1 s

fieldAverage fieldAverage1 write:
    Calculating averages

Time = 7e-05

    Particles inserted              = 214
    Collisions                      = 960
    Acceptance rate                 = 0.7012417823

Cloud name: dsmc
    Number of dsmc particles        = 22577
    Number of molecules             = 1.12885e+17
    Mass in system                  = 5.4153476e-09
    Average linear momentum         = (7.811913164e-23 1.957867194e-24 6.582434828e-27)
   |Average linear momentum|        = 7.814366267e-23
    Average linear kinetic energy   = 7.454543578e-20
    Average internal energy         = 4.710154465e-21
    Average total energy            = 7.925559025e-20

ExecutionTime = 0.65 s  ClockTime = 1 s

fieldAverage fieldAverage1 write:
    Calculating averages

Time = 7.2e-05

    Particles inserted              = 218
    Collisions                      = 902
    Acceptance rate                 = 0.6711309524

Cloud name: dsmc
    Number of dsmc particles        = 22641
    Number of molecules             = 1.13205e+17
    Mass in system                  = 5.4308234e-09
    Average linear momentum         = (7.79877186e-23 2.056259241e-24 3.890529443e-27)
   |Average linear momentum|        = 7.801482212e-23
    Average linear kinetic energy   = 7.444485583e-20
    Average internal energy         = 4.735439134e-21
    Average total energy            = 7.918029496e-20

ExecutionTime = 0.66 s  ClockTime = 1 s

fieldAverage fieldAverage1 write:
    Calculating averages

Time = 7.4e-05

    Particles inserted              = 211
    Collisions                      = 982
    Acceptance rate                 = 0.7090252708

Cloud name: dsmc
    Number of dsmc particles        = 22702
    Number of molecules             = 1.1351e+17
    Mass in system                  = 5.4455355e-09
    Average linear momentum         = (7.792769184e-23 2.091132157e-24 1.639379312e-26)
   |Average linear momentum|        = 7.795574551e-23
    Average linear kinetic energy   = 7.443198151e-20
    Average internal energy         = 4.746168573e-21
    Average total energy            = 7.917815009e-20

ExecutionTime = 0.66 s  ClockTime = 1 s

fieldAverage fieldAverage1 write:
    Calculating averages

Time = 7.6e-05

    Particles inserted              = 191
    Collisions                      = 1007
    Acceptance rate                 = 0.7091549296

Cloud name: dsmc
    Number of dsmc particles        = 22740
    Number of molecules             = 1.137e+17
    Mass in system                  = 5.4547346e-09
    Average linear momentum         = (7.785518564e-23 2.138340683e-24 6.266509065e-27)
   |Average linear momentum|        = 7.788454577e-23
    Average linear kinetic energy   = 7.433868269e-20
    Average internal energy         = 4.770170437e-21
    Average total energy            = 7.910885313e-20

ExecutionTime = 0.68 s  ClockTime = 1 s

fieldAverage fieldAverage1 write:
    Calculating averages

Time = 7.8e-05

    Particles inserted              = 204
    Collisions                      = 1009
    Acceptance rate                 = 0.7002081888

Cloud name: dsmc
    Number of dsmc particles        = 22793
    Number of molecules             = 1.13965e+17
    Mass in system                  = 5.4674212e-09
    Average linear momentum         = (7.77352512e-23 2.203950423e-24 2.978327542e-26)
   |Average linear momentum|        = 7.776649384e-23
    Average linear kinetic energy   = 7.422537173e-20
    Average internal energy         = 4.787030814e-21
    Average total energy            = 7.901240254e-20

ExecutionTime = 0.69 s  ClockTime = 1 s

fieldAverage fieldAverage1 write:
    Calculating averages

Time = 8e-05

    Particles inserted              = 198
    Collisions                      = 968
    Acceptance rate                 = 0.6870120653

Cloud name: dsmc
    Number of dsmc particles        = 22839
    Number of molecules             = 1.14195e+17
    Mass in system                  = 5.4785465e-09
    Average linear momentum         = (7.764706992e-23 2.260531672e-24 3.773073773e-26)
   |Average linear momentum|        = 7.767997744e-23
    Average linear kinetic energy   = 7.41893422e-20
    Average internal energy         = 4.786736153e-21
    Average total energy            = 7.897607835e-20

ExecutionTime = 0.69 s  ClockTime = 1 s

fieldAverage fieldAverage1 write:
    Calculating averages

Time = 8.2e-05

    Particles inserted              = 205
    Collisions                      = 1037
    Acceptance rate                 = 0.7146795314

Cloud name: dsmc
    Number of dsmc particles        = 22890
    Number of molecules             = 1.1445e+17
    Mass in system                  = 5.4905033e-09
    Average linear momentum         = (7.757408474e-23 2.316542229e-24 7.011409955e-26)
   |Average linear momentum|        = 7.760869737e-23
    Average linear kinetic energy   = 7.4126547e-20
    Average internal energy         = 4.807257998e-21
    Average total energy            = 7.8933805e-20

ExecutionTime = 0.7 s  ClockTime = 1 s

fieldAverage fieldAverage1 write:
    Calculating averages

Time = 8.4e-05

    Particles inserted              = 175
    Collisions                      = 984
    Acceptance rate                 = 0.6833333333

Cloud name: dsmc
    Number of dsmc particles        = 22909
    Number of molecules             = 1.14545e+17
    Mass in system                  = 5.4949208e-09
    Average linear momentum         = (7.749737378e-23 2.385401686e-24 5.8389868e-26)
   |Average linear momentum|        = 7.753409891e-23
    Average linear kinetic energy   = 7.40550875e-20
    Average internal energy         = 4.822322449e-21
    Average total energy            = 7.887740995e-20

ExecutionTime = 0.72 s  ClockTime = 1 s

fieldAverage fieldAverage1 write:
    Calculating averages

Time = 8.6e-05

    Particles inserted              = 188
    Collisions                      = 1018
    Acceptance rate                 = 0.6911065852

Cloud name: dsmc
    Number of dsmc particles        = 22940
    Number of molecules             = 1.147e+17
    Mass in system                  = 5.5020621e-09
    Average linear momentum         = (7.740665054e-23 2.436157672e-24 7.062883779e-26)
   |Average linear momentum|        = 7.744500888e-23
    Average linear kinetic energy   = 7.400082329e-20
    Average internal energy         = 4.842117891e-21
    Average total energy            = 7.884294118e-20

ExecutionTime = 0.74 s  ClockTime = 1 s

fieldAverage fieldAverage1 write:
    Calculating averages

Time = 8.8e-05

    Particles inserted              = 213
    Collisions                      = 1015
    Acceptance rate                 = 0.6816655473

Cloud name: dsmc
    Number of dsmc particles        = 22981
    Number of molecules             = 1.14905e+17
    Mass in system                  = 5.5113298e-09
    Average linear momentum         = (7.732875762e-23 2.471735784e-24 6.01012751e-26)
   |Average linear momentum|        = 7.736827415e-23
    Average linear kinetic energy   = 7.393596247e-20
    Average internal energy         = 4.864520538e-21
    Average total energy            = 7.8800483e-20

ExecutionTime = 0.74 s  ClockTime = 1 s

fieldAverage fieldAverage1 write:
    Calculating averages

Time = 9e-05

    Particles inserted              = 201
    Collisions                      = 1045
    Acceptance rate                 = 0.6962025316

Cloud name: dsmc
    Number of dsmc particles        = 23012
    Number of molecules             = 1.1506e+17
    Mass in system                  = 5.5186697e-09
    Average linear momentum         = (7.724384781e-23 2.492621257e-24 6.734789775e-26)
   |Average linear momentum|        = 7.728408453e-23
    Average linear kinetic energy   = 7.386096179e-20
    Average internal energy         = 4.881669591e-21
    Average total energy            = 7.874263138e-20

ExecutionTime = 0.75 s  ClockTime = 1 s

fieldAverage fieldAverage1 write:
    Calculating averages

Time = 9.2e-05

    Particles inserted              = 180
    Collisions                      = 1047
    Acceptance rate                 = 0.7088693297

Cloud name: dsmc
    Number of dsmc particles        = 23022
    Number of molecules             = 1.1511e+17
    Mass in system                  = 5.5207961e-09
    Average linear momentum         = (7.714228857e-23 2.549378207e-24 2.860051315e-26)
   |Average linear momentum|        = 7.718440797e-23
    Average linear kinetic energy   = 7.373712526e-20
    Average internal energy         = 4.903779915e-21
    Average total energy            = 7.864090517e-20

ExecutionTime = 0.77 s  ClockTime = 1 s

fieldAverage fieldAverage1 write:
    Calculating averages

Time = 9.4e-05

    Particles inserted              = 191
    Collisions                      = 1049
    Acceptance rate                 = 0.7002670227

Cloud name: dsmc
    Number of dsmc particles        = 23052
    Number of molecules             = 1.1526e+17
    Mass in system                  = 5.5281683e-09
    Average linear momentum         = (7.704166636e-23 2.609147728e-24 3.0908825e-26)
   |Average linear momentum|        = 7.708584152e-23
    Average linear kinetic energy   = 7.365610668e-20
    Average internal energy         = 4.928115092e-21
    Average total energy            = 7.858422177e-20

ExecutionTime = 0.77 s  ClockTime = 1 s

fieldAverage fieldAverage1 write:
    Calculating averages

Time = 9.6e-05

    Particles inserted              = 192
    Collisions                      = 1030
    Acceptance rate                 = 0.6780776827

Cloud name: dsmc
    Number of dsmc particles        = 23077
    Number of molecules             = 1.15385e+17
    Mass in system                  = 5.5341463e-09
    Average linear momentum         = (7.695522598e-23 2.682068913e-24 2.680640183e-26)
   |Average linear momentum|        = 7.700195464e-23
    Average linear kinetic energy   = 7.35803897e-20
    Average internal energy         = 4.942096647e-21
    Average total energy            = 7.852248634e-20

ExecutionTime = 0.78 s  ClockTime = 1 s

fieldAverage fieldAverage1 write:
    Calculating averages

Time = 9.8e-05

    Particles inserted              = 224
    Collisions                      = 1046
    Acceptance rate                 = 0.682767624

Cloud name: dsmc
    Number of dsmc particles        = 23148
    Number of molecules             = 1.1574e+17
    Mass in system                  = 5.551382e-09
    Average linear momentum         = (7.689591278e-23 2.679111758e-24 3.600017092e-26)
   |Average linear momentum|        = 7.694257819e-23
    Average linear kinetic energy   = 7.352377751e-20
    Average internal energy         = 4.969320757e-21
    Average total energy            = 7.849309826e-20

ExecutionTime = 0.8 s  ClockTime = 1 s

fieldAverage fieldAverage1 write:
    Calculating averages

Time = 0.0001

    Particles inserted              = 197
    Collisions                      = 1068
    Acceptance rate                 = 0.6903684551

Cloud name: dsmc
    Number of dsmc particles        = 23189
    Number of molecules             = 1.15945e+17
    Mass in system                  = 5.5615434e-09
    Average linear momentum         = (7.681628525e-23 2.710990304e-24 5.574414341e-26)
   |Average linear momentum|        = 7.686412853e-23
    Average linear kinetic energy   = 7.34557935e-20
    Average internal energy         = 4.983782708e-21
    Average total energy            = 7.84395762e-20

ExecutionTime = 0.81 s  ClockTime = 1 s

fieldAverage fieldAverage1 write:
    Calculating averages

Time = 0.000102

    Particles inserted              = 195
    Collisions                      = 1060
    Acceptance rate                 = 0.689206762

Cloud name: dsmc
    Number of dsmc particles        = 23227
    Number of molecules             = 1.16135e+17
    Mass in system                  = 5.5709742e-09
    Average linear momentum         = (7.675265758e-23 2.750898467e-24 4.455101078e-26)
   |Average linear momentum|        = 7.680195227e-23
    Average linear kinetic energy   = 7.337470156e-20
    Average internal energy         = 5.019526085e-21
    Average total energy            = 7.839422765e-20

ExecutionTime = 0.81 s  ClockTime = 1 s

fieldAverage fieldAverage1 write:
    Calculating averages

Time = 0.000104

    Particles inserted              = 215
    Collisions                      = 1090
    Acceptance rate                 = 0.6816760475

Cloud name: dsmc
    Number of dsmc particles        = 23279
    Number of molecules             = 1.16395e+17
    Mass in system                  = 5.5831635e-09
    Average linear momentum         = (7.669035914e-23 2.7759441e-24 4.923150267e-26)
   |Average linear momentum|        = 7.674059861e-23
    Average linear kinetic energy   = 7.330267825e-20
    Average internal energy         = 5.040833725e-21
    Average total energy            = 7.834351197e-20

ExecutionTime = 0.83 s  ClockTime = 1 s

fieldAverage fieldAverage1 write:
    Calculating averages

Time = 0.000106

    Particles inserted              = 214
    Collisions                      = 1075
    Acceptance rate                 = 0.6765261171

Cloud name: dsmc
    Number of dsmc particles        = 23330
    Number of molecules             = 1.1665e+17
    Mass in system                  = 5.5960471e-09
    Average linear momentum         = (7.667862717e-23 2.785396641e-24 4.906356624e-26)
   |Average linear momentum|        = 7.672921677e-23
    Average linear kinetic energy   = 7.328176606e-20
    Average internal energy         = 5.070260414e-21
    Average total energy            = 7.835202647e-20

ExecutionTime = 0.83 s  ClockTime = 1 s

fieldAverage fieldAverage1 write:
    Calculating averages

Time = 0.000108

    Particles inserted              = 198
    Collisions                      = 1082
    Acceptance rate                 = 0.6805031447

Cloud name: dsmc
    Number of dsmc particles        = 23357
    Number of molecules             = 1.16785e+17
    Mass in system                  = 5.6025232e-09
    Average linear momentum         = (7.65605553e-23 2.833364388e-24 5.857442502e-26)
   |Average linear momentum|        = 7.661298854e-23
    Average linear kinetic energy   = 7.320863086e-20
    Average internal energy         = 5.08494905e-21
    Average total energy            = 7.829357991e-20

ExecutionTime = 0.84 s  ClockTime = 1 s

fieldAverage fieldAverage1 write:
    Calculating averages

Time = 0.00011

    Particles inserted              = 184
    Collisions                      = 1086
    Acceptance rate                 = 0.6783260462

Cloud name: dsmc
    Number of dsmc particles        = 23384
    Number of molecules             = 1.1692e+17
    Mass in system                  = 5.6089993e-09
    Average linear momentum         = (7.647942423e-23 2.896897898e-24 8.921883101e-26)
   |Average linear momentum|        = 7.653432111e-23
    Average linear kinetic energy   = 7.315383862e-20
    Average internal energy         = 5.107082258e-21
    Average total energy            = 7.826092088e-20

ExecutionTime = 0.86 s  ClockTime = 1 s

fieldAverage fieldAverage1 write:
    Calculating averages

Time = 0.000112

    Particles inserted              = 203
    Collisions                      = 1081
    Acceptance rate                 = 0.661971831

Cloud name: dsmc
    Number of dsmc particles        = 23440
    Number of molecules             = 1.172e+17
    Mass in system                  = 5.6227475e-09
    Average linear momentum         = (7.640453446e-23 2.946284618e-24 7.953716448e-26)
   |Average linear momentum|        = 7.646136152e-23
    Average linear kinetic energy   = 7.31165409e-20
    Average internal energy         = 5.110620963e-21
    Average total energy            = 7.822716186e-20

ExecutionTime = 0.88 s  ClockTime = 1 s

fieldAverage fieldAverage1 write:
    Calculating averages

Time = 0.000114

    Particles inserted              = 203
    Collisions                      = 1110
    Acceptance rate                 = 0.6711003628

Cloud name: dsmc
    Number of dsmc particles        = 23502
    Number of molecules             = 1.1751e+17
    Mass in system                  = 5.6374935e-09
    Average linear momentum         = (7.6322129e-23 3.007106694e-24 8.913012621e-26)
   |Average linear momentum|        = 7.638139832e-23
    Average linear kinetic energy   = 7.306311555e-20
    Average internal energy         = 5.115989347e-21
    Average total energy            = 7.81791049e-20

ExecutionTime = 0.89 s  ClockTime = 1 s

fieldAverage fieldAverage1 write:
    Calculating averages

Time = 0.000116

    Particles inserted              = 201
    Collisions                      = 1107
    Acceptance rate                 = 0.6741778319

Cloud name: dsmc
    Number of dsmc particles        = 23571
    Number of molecules             = 1.17855e+17
    Mass in system                  = 5.6537677e-09
    Average linear momentum         = (7.625126521e-23 3.039261901e-24 8.884294637e-26)
   |Average linear momentum|        = 7.631186312e-23
    Average linear kinetic energy   = 7.302387257e-20
    Average internal energy         = 5.12857067e-21
    Average total energy            = 7.815244324e-20

ExecutionTime = 0.91 s  ClockTime = 1 s

fieldAverage fieldAverage1 write:
    Calculating averages

Time = 0.000118

    Particles inserted              = 184
    Collisions                      = 1106
    Acceptance rate                 = 0.6731588558

Cloud name: dsmc
    Number of dsmc particles        = 23584
    Number of molecules             = 1.1792e+17
    Mass in system                  = 5.6571874e-09
    Average linear momentum         = (7.61760189e-23 3.105313507e-24 8.513487179e-26)
   |Average linear momentum|        = 7.623933417e-23
    Average linear kinetic energy   = 7.293120163e-20
    Average internal energy         = 5.155632753e-21
    Average total energy            = 7.808683438e-20

ExecutionTime = 0.94 s  ClockTime = 1 s

fieldAverage fieldAverage1 write:
    Calculating averages

Time = 0.00012

    Particles inserted              = 192
    Collisions                      = 1122
    Acceptance rate                 = 0.6730653869

Cloud name: dsmc
    Number of dsmc particles        = 23631
    Number of molecules             = 1.18155e+17
    Mass in system                  = 5.6681811e-09
    Average linear momentum         = (7.610971799e-23 3.161089093e-24 9.483896275e-26)
   |Average linear momentum|        = 7.6175394e-23
    Average linear kinetic energy   = 7.287181545e-20
    Average internal energy         = 5.173058836e-21
    Average total energy            = 7.804487428e-20

ExecutionTime = 0.94 s  ClockTime = 1 s

fieldAverage fieldAverage1 write:
    Calculating averages

Time = 0.000122

    Particles inserted              = 203
    Collisions                      = 1135
    Acceptance rate                 = 0.6688273424

Cloud name: dsmc
    Number of dsmc particles        = 23655
    Number of molecules             = 1.18275e+17
    Mass in system                  = 5.6738604e-09
    Average linear momentum         = (7.602104699e-23 3.187884266e-24 1.197167864e-25)
   |Average linear momentum|        = 7.608795255e-23
    Average linear kinetic energy   = 7.277842335e-20
    Average internal energy         = 5.198032813e-21
    Average total energy            = 7.797645616e-20

ExecutionTime = 0.95 s  ClockTime = 1 s

fieldAverage fieldAverage1 write:
    Calculating averages

Time = 0.000124

    Particles inserted              = 200
    Collisions                      = 1164
    Acceptance rate                 = 0.6847058824

Cloud name: dsmc
    Number of dsmc particles        = 23710
    Number of molecules             = 1.1855e+17
    Mass in system                  = 5.6868796e-09
    Average linear momentum         = (7.59722491e-23 3.195376969e-24 1.37737271e-25)
   |Average linear momentum|        = 7.60395426e-23
    Average linear kinetic energy   = 7.272438294e-20
    Average internal energy         = 5.228839879e-21
    Average total energy            = 7.795322282e-20

ExecutionTime = 0.99 s  ClockTime = 1 s

fieldAverage fieldAverage1 write:
    Calculating averages

Time = 0.000126

    Particles inserted              = 176
    Collisions                      = 1091
    Acceptance rate                 = 0.6680955297

Cloud name: dsmc
    Number of dsmc particles        = 23727
    Number of molecules             = 1.18635e+17
    Mass in system                  = 5.6910307e-09
    Average linear momentum         = (7.588195206e-23 3.248107504e-24 1.13397082e-25)
   |Average linear momentum|        = 7.59515221e-23
    Average linear kinetic energy   = 7.264967693e-20
    Average internal energy         = 5.241238486e-21
    Average total energy            = 7.789091542e-20

ExecutionTime = 1.01 s  ClockTime = 1 s

fieldAverage fieldAverage1 write:
    Calculating averages

Time = 0.000128

    Particles inserted              = 198
    Collisions                      = 1140
    Acceptance rate                 = 0.6647230321

Cloud name: dsmc
    Number of dsmc particles        = 23763
    Number of molecules             = 1.18815e+17
    Mass in system                  = 5.6995993e-09
    Average linear momentum         = (7.578724451e-23 3.282785459e-24 1.134112262e-25)
   |Average linear momentum|        = 7.585839422e-23
    Average linear kinetic energy   = 7.256347902e-20
    Average internal energy         = 5.249316686e-21
    Average total energy            = 7.781279571e-20

ExecutionTime = 1.02 s  ClockTime = 1 s

fieldAverage fieldAverage1 write:
    Calculating averages

Time = 0.00013

    Particles inserted              = 212
    Collisions                      = 1130
    Acceptance rate                 = 0.6596614127

Cloud name: dsmc
    Number of dsmc particles        = 23821
    Number of molecules             = 1.19105e+17
    Mass in system                  = 5.7137794e-09
    Average linear momentum         = (7.574441555e-23 3.337275612e-24 1.079829296e-25)
   |Average linear momentum|        = 7.581797647e-23
    Average linear kinetic energy   = 7.253548625e-20
    Average internal energy         = 5.264835942e-21
    Average total energy            = 7.780032219e-20

ExecutionTime = 1.04 s  ClockTime = 1 s

fieldAverage fieldAverage1 write:
    Calculating averages

Time = 0.000132

    Particles inserted              = 222
    Collisions                      = 1126
    Acceptance rate                 = 0.6557949913

Cloud name: dsmc
    Number of dsmc particles        = 23862
    Number of molecules             = 1.1931e+17
    Mass in system                  = 5.7240401e-09
    Average linear momentum         = (7.567297426e-23 3.369112958e-24 1.194294767e-25)
   |Average linear momentum|        = 7.574803112e-23
    Average linear kinetic energy   = 7.247500773e-20
    Average internal energy         = 5.27601014e-21
    Average total energy            = 7.775101787e-20

ExecutionTime = 1.05 s  ClockTime = 1 s

fieldAverage fieldAverage1 write:
    Calculating averages

Time = 0.000134

    Particles inserted              = 205
    Collisions                      = 1127
    Acceptance rate                 = 0.6473291212

Cloud name: dsmc
    Number of dsmc particles        = 23911
    Number of molecules             = 1.19555e+17
    Mass in system                  = 5.7361608e-09
    Average linear momentum         = (7.566199828e-23 3.400500409e-24 1.330096405e-25)
   |Average linear momentum|        = 7.573849139e-23
    Average linear kinetic energy   = 7.248565943e-20
    Average internal energy         = 5.288525212e-21
    Average total energy            = 7.777418464e-20

ExecutionTime = 1.07 s  ClockTime = 1 s

fieldAverage fieldAverage1 write:
    Calculating averages

Time = 0.000136

    Particles inserted              = 184
    Collisions                      = 1152
    Acceptance rate                 = 0.6523216308

Cloud name: dsmc
    Number of dsmc particles        = 23925
    Number of molecules             = 1.19625e+17
    Mass in system                  = 5.7394158e-09
    Average linear momentum         = (7.559733466e-23 3.434431576e-24 1.393752378e-25)
   |Average linear momentum|        = 7.567543692e-23
    Average linear kinetic energy   = 7.240691156e-20
    Average internal energy         = 5.313828085e-21
    Average total energy            = 7.772073964e-20

ExecutionTime = 1.08 s  ClockTime = 1 s

fieldAverage fieldAverage1 write:
    Calculating averages

Time = 0.000138

    Particles inserted              = 221
    Collisions                      = 1138
    Acceptance rate                 = 0.6635568513

Cloud name: dsmc
    Number of dsmc particles        = 23969
    Number of molecules             = 1.19845e+17
    Mass in system                  = 5.7504402e-09
    Average linear momentum         = (7.552098759e-23 3.483116151e-24 1.434586135e-25)
   |Average linear momentum|        = 7.560140373e-23
    Average linear kinetic energy   = 7.232107567e-20
    Average internal energy         = 5.313008464e-21
    Average total energy            = 7.763408414e-20

ExecutionTime = 1.1 s  ClockTime = 1 s

fieldAverage fieldAverage1 write:
    Calculating averages

Time = 0.00014

    Particles inserted              = 199
    Collisions                      = 1199
    Acceptance rate                 = 0.6720852018

Cloud name: dsmc
    Number of dsmc particles        = 24018
    Number of molecules             = 1.2009e+17
    Mass in system                  = 5.7621306e-09
    Average linear momentum         = (7.549380553e-23 3.518436257e-24 1.318956624e-25)
   |Average linear momentum|        = 7.557586562e-23
    Average linear kinetic energy   = 7.227720212e-20
    Average internal energy         = 5.33050142e-21
    Average total energy            = 7.760770354e-20

ExecutionTime = 1.11 s  ClockTime = 1 s

fieldAverage fieldAverage1 write:
    Calculating averages

Time = 0.000142

    Particles inserted              = 192
    Collisions                      = 1180
    Acceptance rate                 = 0.6584821429

Cloud name: dsmc
    Number of dsmc particles        = 24030
    Number of molecules             = 1.2015e+17
    Mass in system                  = 5.7650861e-09
    Average linear momentum         = (7.53961143e-23 3.602749572e-24 1.473844358e-25)
   |Average linear momentum|        = 7.548228652e-23
    Average linear kinetic energy   = 7.220503143e-20
    Average internal energy         = 5.332098603e-21
    Average total energy            = 7.753713003e-20

ExecutionTime = 1.15 s  ClockTime = 1 s

fieldAverage fieldAverage1 write:
    Calculating averages

Time = 0.000144

    Particles inserted              = 185
    Collisions                      = 1165
    Acceptance rate                 = 0.6718569781

Cloud name: dsmc
    Number of dsmc particles        = 24047
    Number of molecules             = 1.20235e+17
    Mass in system                  = 5.7690717e-09
    Average linear momentum         = (7.534166886e-23 3.651762257e-24 1.849671204e-25)
   |Average linear momentum|        = 7.543034301e-23
    Average linear kinetic energy   = 7.217864549e-20
    Average internal energy         = 5.337876676e-21
    Average total energy            = 7.751652216e-20

ExecutionTime = 1.16 s  ClockTime = 1 s

fieldAverage fieldAverage1 write:
    Calculating averages

Time = 0.000146

    Particles inserted              = 200
    Collisions                      = 1221
    Acceptance rate                 = 0.6646706587

Cloud name: dsmc
    Number of dsmc particles        = 24087
    Number of molecules             = 1.20435e+17
    Mass in system                  = 5.7787358e-09
    Average linear momentum         = (7.532495682e-23 3.684623014e-24 2.062493778e-25)
   |Average linear momentum|        = 7.541530419e-23
    Average linear kinetic energy   = 7.215750845e-20
    Average internal energy         = 5.358742159e-21
    Average total energy            = 7.751625061e-20

ExecutionTime = 1.18 s  ClockTime = 1 s

fieldAverage fieldAverage1 write:
    Calculating averages

Time = 0.000148

    Particles inserted              = 196
    Collisions                      = 1192
    Acceptance rate                 = 0.6614872364

Cloud name: dsmc
    Number of dsmc particles        = 24118
    Number of molecules             = 1.2059e+17
    Mass in system                  = 5.7864398e-09
    Average linear momentum         = (7.526946934e-23 3.73339724e-24 1.990883412e-25)
   |Average linear momentum|        = 7.536226447e-23
    Average linear kinetic energy   = 7.209695954e-20
    Average internal energy         = 5.381849351e-21
    Average total energy            = 7.747880889e-20

ExecutionTime = 1.19 s  ClockTime = 1 s

fieldAverage fieldAverage1 write:
    Calculating averages

Time = 0.00015

    Particles inserted              = 210
    Collisions                      = 1224
    Acceptance rate                 = 0.6681222707

Cloud name: dsmc
    Number of dsmc particles        = 24171
    Number of molecules             = 1.20855e+17
    Mass in system                  = 5.7989278e-09
    Average linear momentum         = (7.520782228e-23 3.767829253e-24 1.857580527e-25)
   |Average linear momentum|        = 7.53023743e-23
    Average linear kinetic energy   = 7.203635009e-20
    Average internal energy         = 5.397257159e-21
    Average total energy            = 7.743360725e-20

ExecutionTime = 1.21 s  ClockTime = 1 s

fieldAverage fieldAverage1 write:
    Calculating averages

Time = 0.000152

    Particles inserted              = 178
    Collisions                      = 1183
    Acceptance rate                 = 0.65

Cloud name: dsmc
    Number of dsmc particles        = 24174
    Number of molecules             = 1.2087e+17
    Mass in system                  = 5.7997908e-09
    Average linear momentum         = (7.51327304e-23 3.81020589e-24 1.642608761e-25)
   |Average linear momentum|        = 7.522946117e-23
    Average linear kinetic energy   = 7.196645332e-20
    Average internal energy         = 5.42233041e-21
    Average total energy            = 7.738878373e-20

ExecutionTime = 1.22 s  ClockTime = 1 s

fieldAverage fieldAverage1 write:
    Calculating averages

Time = 0.000154

    Particles inserted              = 196
    Collisions                      = 1201
    Acceptance rate                 = 0.6555676856

Cloud name: dsmc
    Number of dsmc particles        = 24205
    Number of molecules             = 1.21025e+17
    Mass in system                  = 5.8068659e-09
    Average linear momentum         = (7.503767233e-23 3.864507646e-24 1.317094898e-25)
   |Average linear momentum|        = 7.513723468e-23
    Average linear kinetic energy   = 7.185116798e-20
[...]
    Average linear kinetic energy   = 6.618233436e-20
    Average internal energy         = 6.461288772e-21
    Average total energy            = 7.264362313e-20

ExecutionTime = 85.06 s  ClockTime = 87 s

fieldAverage fieldAverage1 write:
    Calculating averages

Time = 0.00995

    Particles inserted              = 206
    Collisions                      = 1793
    Acceptance rate                 = 0.5251903925

Cloud name: dsmc
    Number of dsmc particles        = 27728
    Number of molecules             = 1.3864e+17
    Mass in system                  = 6.6520462e-09
    Average linear momentum         = (6.902828062e-23 6.549732316e-24 3.057758923e-27)
   |Average linear momentum|        = 6.933831933e-23
    Average linear kinetic energy   = 6.621587615e-20
    Average internal energy         = 6.455659549e-21
    Average total energy            = 7.26715357e-20

ExecutionTime = 85.07 s  ClockTime = 87 s

fieldAverage fieldAverage1 write:
    Calculating averages

Time = 0.009952

    Particles inserted              = 206
    Collisions                      = 1843
    Acceptance rate                 = 0.5366919045

Cloud name: dsmc
    Number of dsmc particles        = 27732
    Number of molecules             = 1.3866e+17
    Mass in system                  = 6.6528769e-09
    Average linear momentum         = (6.904962125e-23 6.529789875e-24 -1.658380152e-28)
   |Average linear momentum|        = 6.935768415e-23
    Average linear kinetic energy   = 6.621419209e-20
    Average internal energy         = 6.474066569e-21
    Average total energy            = 7.268825866e-20

ExecutionTime = 85.09 s  ClockTime = 87 s

fieldAverage fieldAverage1 write:
    Calculating averages

Time = 0.009954

    Particles inserted              = 201
    Collisions                      = 1824
    Acceptance rate                 = 0.5353683593

Cloud name: dsmc
    Number of dsmc particles        = 27724
    Number of molecules             = 1.3862e+17
    Mass in system                  = 6.6514472e-09
    Average linear momentum         = (6.90485579e-23 6.536096903e-24 6.889141471e-27)
   |Average linear momentum|        = 6.935721994e-23
    Average linear kinetic energy   = 6.622604837e-20
    Average internal energy         = 6.470673258e-21
    Average total energy            = 7.269672163e-20

ExecutionTime = 85.1 s  ClockTime = 87 s

fieldAverage fieldAverage1 write:
    Calculating averages

Time = 0.009956

    Particles inserted              = 181
    Collisions                      = 1796
    Acceptance rate                 = 0.5231575881

Cloud name: dsmc
    Number of dsmc particles        = 27716
    Number of molecules             = 1.3858e+17
    Mass in system                  = 6.6491238e-09
    Average linear momentum         = (6.902303943e-23 6.523755455e-24 -5.906099527e-27)
   |Average linear momentum|        = 6.933065262e-23
    Average linear kinetic energy   = 6.620578109e-20
    Average internal energy         = 6.476957048e-21
    Average total energy            = 7.268273814e-20

ExecutionTime = 85.12 s  ClockTime = 87 s

fieldAverage fieldAverage1 write:
    Calculating averages

Time = 0.009958

    Particles inserted              = 205
    Collisions                      = 1761
    Acceptance rate                 = 0.5159683563

Cloud name: dsmc
    Number of dsmc particles        = 27749
    Number of molecules             = 1.38745e+17
    Mass in system                  = 6.6567301e-09
    Average linear momentum         = (6.90165431e-23 6.54578522e-24 2.169588919e-27)
   |Average linear momentum|        = 6.932626148e-23
    Average linear kinetic energy   = 6.622077846e-20
    Average internal energy         = 6.462410277e-21
    Average total energy            = 7.268318874e-20

ExecutionTime = 85.13 s  ClockTime = 87 s

fieldAverage fieldAverage1 write:
    Calculating averages

Time = 0.00996

    Particles inserted              = 191
    Collisions                      = 1782
    Acceptance rate                 = 0.5192307692

Cloud name: dsmc
    Number of dsmc particles        = 27712
    Number of molecules             = 1.3856e+17
    Mass in system                  = 6.6476642e-09
    Average linear momentum         = (6.902933465e-23 6.528063075e-24 -4.895999662e-27)
   |Average linear momentum|        = 6.933732525e-23
    Average linear kinetic energy   = 6.62434118e-20
    Average internal energy         = 6.452655138e-21
    Average total energy            = 7.269606694e-20

ExecutionTime = 85.15 s  ClockTime = 87 s

fieldAverage fieldAverage1 write:
    Calculating averages

Time = 0.009962

    Particles inserted              = 187
    Collisions                      = 1807
    Acceptance rate                 = 0.5299120235

Cloud name: dsmc
    Number of dsmc particles        = 27698
    Number of molecules             = 1.3849e+17
    Mass in system                  = 6.6444092e-09
    Average linear momentum         = (6.903597693e-23 6.54758863e-24 3.570416377e-27)
   |Average linear momentum|        = 6.934577882e-23
    Average linear kinetic energy   = 6.623747378e-20
    Average internal energy         = 6.4636182e-21
    Average total energy            = 7.270109198e-20

ExecutionTime = 85.16 s  ClockTime = 87 s

fieldAverage fieldAverage1 write:
    Calculating averages

Time = 0.009964

    Particles inserted              = 192
    Collisions                      = 1836
    Acceptance rate                 = 0.53574555

Cloud name: dsmc
    Number of dsmc particles        = 27686
    Number of molecules             = 1.3843e+17
    Mass in system                  = 6.640891e-09
    Average linear momentum         = (6.901477854e-23 6.531014853e-24 3.831723825e-27)
   |Average linear momentum|        = 6.932311178e-23
    Average linear kinetic energy   = 6.621003464e-20
    Average internal energy         = 6.468660335e-21
    Average total energy            = 7.267869498e-20

ExecutionTime = 85.18 s  ClockTime = 88 s

fieldAverage fieldAverage1 write:
    Calculating averages

Time = 0.009966

    Particles inserted              = 191
    Collisions                      = 1818
    Acceptance rate                 = 0.5311130587

Cloud name: dsmc
    Number of dsmc particles        = 27647
    Number of molecules             = 1.38235e+17
    Mass in system                  = 6.6313601e-09
    Average linear momentum         = (6.899934462e-23 6.522314353e-24 -5.823978565e-27)
   |Average linear momentum|        = 6.930692733e-23
    Average linear kinetic energy   = 6.619504844e-20
    Average internal energy         = 6.463998347e-21
    Average total energy            = 7.265904679e-20

ExecutionTime = 85.2 s  ClockTime = 88 s

fieldAverage fieldAverage1 write:
    Calculating averages

Time = 0.009968

    Particles inserted              = 211
    Collisions                      = 1779
    Acceptance rate                 = 0.5249336087

Cloud name: dsmc
    Number of dsmc particles        = 27656
    Number of molecules             = 1.3828e+17
    Mass in system                  = 6.6336843e-09
    Average linear momentum         = (6.900203546e-23 6.524910761e-24 -6.209035469e-27)
   |Average linear momentum|        = 6.930985064e-23
    Average linear kinetic energy   = 6.621373017e-20
    Average internal energy         = 6.447057084e-21
    Average total energy            = 7.266078726e-20

ExecutionTime = 85.21 s  ClockTime = 88 s

fieldAverage fieldAverage1 write:
    Calculating averages

Time = 0.00997

    Particles inserted              = 188
    Collisions                      = 1807
    Acceptance rate                 = 0.5384386174

Cloud name: dsmc
    Number of dsmc particles        = 27648
    Number of molecules             = 1.3824e+17
    Mass in system                  = 6.6315595e-09
    Average linear momentum         = (6.897114784e-23 6.536420535e-24 -1.112795246e-26)
   |Average linear momentum|        = 6.928018585e-23
    Average linear kinetic energy   = 6.618696981e-20
    Average internal energy         = 6.4437029e-21
    Average total energy            = 7.263067271e-20

ExecutionTime = 85.23 s  ClockTime = 88 s

fieldAverage fieldAverage1 write:
    Calculating averages

Time = 0.009972

    Particles inserted              = 202
    Collisions                      = 1833
    Acceptance rate                 = 0.5381679389

Cloud name: dsmc
    Number of dsmc particles        = 27612
    Number of molecules             = 1.3806e+17
    Mass in system                  = 6.6234212e-09
    Average linear momentum         = (6.895369131e-23 6.533630728e-24 6.142714754e-27)
   |Average linear momentum|        = 6.926254337e-23
    Average linear kinetic energy   = 6.619772516e-20
    Average internal energy         = 6.434589171e-21
    Average total energy            = 7.263231433e-20

ExecutionTime = 85.23 s  ClockTime = 88 s

fieldAverage fieldAverage1 write:
    Calculating averages

Time = 0.009974

    Particles inserted              = 204
    Collisions                      = 1806
    Acceptance rate                 = 0.5285338016

Cloud name: dsmc
    Number of dsmc particles        = 27632
    Number of molecules             = 1.3816e+17
    Mass in system                  = 6.628667e-09
    Average linear momentum         = (6.89316847e-23 6.554391876e-24 8.406442294e-27)
   |Average linear momentum|        = 6.924259728e-23
    Average linear kinetic energy   = 6.619284933e-20
    Average internal energy         = 6.423772077e-21
    Average total energy            = 7.261662141e-20

ExecutionTime = 85.24 s  ClockTime = 88 s

fieldAverage fieldAverage1 write:
    Calculating averages

Time = 0.009976

    Particles inserted              = 228
    Collisions                      = 1858
    Acceptance rate                 = 0.5485680543

Cloud name: dsmc
    Number of dsmc particles        = 27665
    Number of molecules             = 1.38325e+17
    Mass in system                  = 6.6371008e-09
    Average linear momentum         = (6.893751979e-23 6.548038259e-24 -1.979328133e-26)
   |Average linear momentum|        = 6.924780741e-23
    Average linear kinetic energy   = 6.619787101e-20
    Average internal energy         = 6.43018748e-21
    Average total energy            = 7.262805849e-20

ExecutionTime = 85.26 s  ClockTime = 88 s

fieldAverage fieldAverage1 write:
    Calculating averages

Time = 0.009978

    Particles inserted              = 208
    Collisions                      = 1800
    Acceptance rate                 = 0.5250875146

Cloud name: dsmc
    Number of dsmc particles        = 27667
    Number of molecules             = 1.38335e+17
    Mass in system                  = 6.6378306e-09
    Average linear momentum         = (6.896360771e-23 6.517101812e-24 -1.72783009e-26)
   |Average linear momentum|        = 6.927086042e-23
    Average linear kinetic energy   = 6.619891377e-20
    Average internal energy         = 6.438691055e-21
    Average total energy            = 7.263760483e-20

ExecutionTime = 85.27 s  ClockTime = 88 s

fieldAverage fieldAverage1 write:
    Calculating averages

Time = 0.00998

    Particles inserted              = 193
    Collisions                      = 1791
    Acceptance rate                 = 0.5284744762

Cloud name: dsmc
    Number of dsmc particles        = 27654
    Number of molecules             = 1.3827e+17
    Mass in system                  = 6.6350729e-09
    Average linear momentum         = (6.898513586e-23 6.527777529e-24 -1.88368442e-26)
   |Average linear momentum|        = 6.92932984e-23
    Average linear kinetic energy   = 6.622084839e-20
    Average internal energy         = 6.438131369e-21
    Average total energy            = 7.265897976e-20

ExecutionTime = 85.29 s  ClockTime = 88 s

fieldAverage fieldAverage1 write:
    Calculating averages

Time = 0.009982

    Particles inserted              = 194
    Collisions                      = 1811
    Acceptance rate                 = 0.5332744405

Cloud name: dsmc
    Number of dsmc particles        = 27660
    Number of molecules             = 1.383e+17
    Mass in system                  = 6.6364679e-09
    Average linear momentum         = (6.896331414e-23 6.554464429e-24 -8.613462404e-27)
   |Average linear momentum|        = 6.927409166e-23
    Average linear kinetic energy   = 6.621958239e-20
    Average internal energy         = 6.411416807e-21
    Average total energy            = 7.26309992e-20

ExecutionTime = 85.31 s  ClockTime = 88 s

fieldAverage fieldAverage1 write:
    Calculating averages

Time = 0.009984

    Particles inserted              = 203
    Collisions                      = 1796
    Acceptance rate                 = 0.5269953052

Cloud name: dsmc
    Number of dsmc particles        = 27657
    Number of molecules             = 1.38285e+17
    Mass in system                  = 6.6360352e-09
    Average linear momentum         = (6.89916963e-23 6.548480985e-24 -4.831492925e-27)
   |Average linear momentum|        = 6.930178053e-23
    Average linear kinetic energy   = 6.622625764e-20
    Average internal energy         = 6.415061238e-21
    Average total energy            = 7.264131887e-20

ExecutionTime = 85.34 s  ClockTime = 88 s

fieldAverage fieldAverage1 write:
    Calculating averages

Time = 0.009986

    Particles inserted              = 199
    Collisions                      = 1810
    Acceptance rate                 = 0.5337658508

Cloud name: dsmc
    Number of dsmc particles        = 27640
    Number of molecules             = 1.382e+17
    Mass in system                  = 6.6320165e-09
    Average linear momentum         = (6.898607679e-23 6.515268017e-24 8.60053715e-27)
   |Average linear momentum|        = 6.92930558e-23
    Average linear kinetic energy   = 6.624317675e-20
    Average internal energy         = 6.413448035e-21
    Average total energy            = 7.265662478e-20

ExecutionTime = 85.35 s  ClockTime = 88 s

fieldAverage fieldAverage1 write:
    Calculating averages

Time = 0.009988

    Particles inserted              = 193
    Collisions                      = 1806
    Acceptance rate                 = 0.527761543

Cloud name: dsmc
    Number of dsmc particles        = 27640
    Number of molecules             = 1.382e+17
    Mass in system                  = 6.6318841e-09
    Average linear momentum         = (6.897703028e-23 6.499804622e-24 6.371289047e-27)
   |Average linear momentum|        = 6.928259671e-23
    Average linear kinetic energy   = 6.622777846e-20
    Average internal energy         = 6.417661266e-21
    Average total energy            = 7.264543972e-20

ExecutionTime = 85.37 s  ClockTime = 88 s

fieldAverage fieldAverage1 write:
    Calculating averages

Time = 0.00999

    Particles inserted              = 192
    Collisions                      = 1820
    Acceptance rate                 = 0.5407011289

Cloud name: dsmc
    Number of dsmc particles        = 27642
    Number of molecules             = 1.3821e+17
    Mass in system                  = 6.6321505e-09
    Average linear momentum         = (6.89335655e-23 6.517957944e-24 1.550327696e-26)
   |Average linear momentum|        = 6.924103168e-23
    Average linear kinetic energy   = 6.619664492e-20
    Average internal energy         = 6.417879177e-21
    Average total energy            = 7.26145241e-20

ExecutionTime = 85.38 s  ClockTime = 88 s

fieldAverage fieldAverage1 write:
    Calculating averages

Time = 0.009992

    Particles inserted              = 201
    Collisions                      = 1839
    Acceptance rate                 = 0.5404055245

Cloud name: dsmc
    Number of dsmc particles        = 27642
    Number of molecules             = 1.3821e+17
    Mass in system                  = 6.6321174e-09
    Average linear momentum         = (6.896475812e-23 6.522497376e-24 4.184231012e-26)
   |Average linear momentum|        = 6.927252403e-23
    Average linear kinetic energy   = 6.621763639e-20
    Average internal energy         = 6.441939068e-21
    Average total energy            = 7.265957546e-20

ExecutionTime = 85.4 s  ClockTime = 88 s

fieldAverage fieldAverage1 write:
    Calculating averages

Time = 0.009994

    Particles inserted              = 185
    Collisions                      = 1790
    Acceptance rate                 = 0.5291161691

Cloud name: dsmc
    Number of dsmc particles        = 27628
    Number of molecules             = 1.3814e+17
    Mass in system                  = 6.6284983e-09
    Average linear momentum         = (6.892510982e-23 6.520192624e-24 5.056806091e-26)
   |Average linear momentum|        = 6.923284071e-23
    Average linear kinetic energy   = 6.617994453e-20
    Average internal energy         = 6.453493601e-21
    Average total energy            = 7.263343813e-20

ExecutionTime = 85.41 s  ClockTime = 88 s

fieldAverage fieldAverage1 write:
    Calculating averages

Time = 0.009996

    Particles inserted              = 192
    Collisions                      = 1753
    Acceptance rate                 = 0.5200237318

Cloud name: dsmc
    Number of dsmc particles        = 27608
    Number of molecules             = 1.3804e+17
    Mass in system                  = 6.6238483e-09
    Average linear momentum         = (6.889531424e-23 6.53102198e-24 3.264364584e-26)
   |Average linear momentum|        = 6.920418801e-23
    Average linear kinetic energy   = 6.614654952e-20
    Average internal energy         = 6.448496763e-21
    Average total energy            = 7.259504629e-20

ExecutionTime = 85.43 s  ClockTime = 88 s

fieldAverage fieldAverage1 write:
    Calculating averages

Time = 0.009998

    Particles inserted              = 193
    Collisions                      = 1775
    Acceptance rate                 = 0.5197657394

Cloud name: dsmc
    Number of dsmc particles        = 27606
    Number of molecules             = 1.3803e+17
    Mass in system                  = 6.6230523e-09
    Average linear momentum         = (6.887299267e-23 6.541832002e-24 4.695448533e-26)
   |Average linear momentum|        = 6.918299567e-23
    Average linear kinetic energy   = 6.614678383e-20
    Average internal energy         = 6.446240017e-21
    Average total energy            = 7.259302385e-20

ExecutionTime = 85.45 s  ClockTime = 88 s

fieldAverage fieldAverage1 write:
    Calculating averages

Time = 0.01

    Particles inserted              = 205
    Collisions                      = 1824
    Acceptance rate                 = 0.5414069457

Cloud name: dsmc
    Number of dsmc particles        = 27633
    Number of molecules             = 1.38165e+17
    Mass in system                  = 6.6294291e-09
    Average linear momentum         = (6.887575127e-23 6.512824588e-24 5.946358577e-26)
   |Average linear momentum|        = 6.918301477e-23
    Average linear kinetic energy   = 6.612279122e-20
    Average internal energy         = 6.46057011e-21
    Average total energy            = 7.258336133e-20

ExecutionTime = 85.57 s  ClockTime = 88 s

fieldAverage fieldAverage1 write:
    Calculating averages

    Writing average fields


Calculating dsmcFields.
    Calculating UMean field.
    Calculating translationalT field.
    Calculating internalT field.
    Calculating overallT field.
    Calculating pressure field.
    mag(UMean) max/min : 1751.008376 132.4093167
    translationalT max/min : 1380.405718 287.3235517
    internalT max/min : 840.3985546 293.6302152
    overallT max/min : 1049.635968 291.4323025
    p max/min : 4.850121194 0.3044745596
dsmcFields written.

forces forces1 write:
    sum of forces:
        pressure : (0.001781543343 -0.006648810274 -1.216762716e-20)
        viscous  : (0.002961196071 0.0007934500958 -0.0007299387114)
        porous   : (0 0 0)
    sum of moments:
        pressure : (-3.614240763e-22 1.348853016e-21 -0.001047359254)
        viscous  : (-3.137798583e-05 0.0001171042373 1.737305238e-14)
        porous   : (0 0 0)

End

Finalising parallel run
